
Determining smart-gap threshold...

-------------
| Arguments |
-------------
Input file: tests/integration/samples/12_YIL115C_Anc_2.253_aa_aln.fasta (format: fasta)
Output file: tests/integration/samples/12_YIL115C_Anc_2.253_aa_aln.fasta.clipkit (format: fasta)
Sequence type: Protein
Gaps threshold: 0.9167
Trimming mode: smart-gap
Create complementary output: False
Create log file: True


------------------------
| Processing Alignment |
------------------------

1 keep SiteClassificationType.constant 0.0
2 keep SiteClassificationType.other 0.8333333333333334
3 keep SiteClassificationType.constant 0.08333333333333333
4 keep SiteClassificationType.singleton 0.08333333333333333
5 keep SiteClassificationType.parsimony_informative 0.08333333333333333
6 keep SiteClassificationType.parsimony_informative 0.0
7 keep SiteClassificationType.parsimony_informative 0.0
8 trim SiteClassificationType.other 0.9166666666666666
9 keep SiteClassificationType.singleton 0.0
10 keep SiteClassificationType.parsimony_informative 0.0
11 keep SiteClassificationType.parsimony_informative 0.0
12 keep SiteClassificationType.constant 0.0
13 keep SiteClassificationType.parsimony_informative 0.0
14 keep SiteClassificationType.parsimony_informative 0.0
15 keep SiteClassificationType.constant 0.0
16 keep SiteClassificationType.singleton 0.0
17 keep SiteClassificationType.parsimony_informative 0.0
18 keep SiteClassificationType.singleton 0.0
19 keep SiteClassificationType.constant 0.0
20 keep SiteClassificationType.constant 0.0
21 keep SiteClassificationType.singleton 0.0
22 keep SiteClassificationType.parsimony_informative 0.0
23 keep SiteClassificationType.singleton 0.0
24 keep SiteClassificationType.singleton 0.0
25 keep SiteClassificationType.parsimony_informative 0.0
26 keep SiteClassificationType.singleton 0.0
27 trim SiteClassificationType.other 0.9166666666666666
28 keep SiteClassificationType.parsimony_informative 0.0
29 keep SiteClassificationType.parsimony_informative 0.0
30 keep SiteClassificationType.constant 0.0
31 keep SiteClassificationType.constant 0.0
32 keep SiteClassificationType.singleton 0.0
33 keep SiteClassificationType.parsimony_informative 0.0
34 keep SiteClassificationType.other 0.8333333333333334
35 keep SiteClassificationType.parsimony_informative 0.0
36 keep SiteClassificationType.singleton 0.0
37 keep SiteClassificationType.singleton 0.0
38 keep SiteClassificationType.parsimony_informative 0.0
39 keep SiteClassificationType.constant 0.0
40 keep SiteClassificationType.parsimony_informative 0.0
41 keep SiteClassificationType.parsimony_informative 0.0
42 keep SiteClassificationType.singleton 0.0
43 keep SiteClassificationType.singleton 0.0
44 keep SiteClassificationType.parsimony_informative 0.0
45 keep SiteClassificationType.constant 0.0
46 keep SiteClassificationType.parsimony_informative 0.0
47 keep SiteClassificationType.parsimony_informative 0.0
48 keep SiteClassificationType.constant 0.0
49 keep SiteClassificationType.parsimony_informative 0.0
50 keep SiteClassificationType.singleton 0.0
51 trim SiteClassificationType.other 0.9166666666666666
52 trim SiteClassificationType.other 0.9166666666666666
53 trim SiteClassificationType.other 0.9166666666666666
54 trim SiteClassificationType.other 0.9166666666666666
55 keep SiteClassificationType.parsimony_informative 0.0
56 keep SiteClassificationType.parsimony_informative 0.0
57 keep SiteClassificationType.singleton 0.0
58 keep SiteClassificationType.singleton 0.0
59 keep SiteClassificationType.parsimony_informative 0.0
60 keep SiteClassificationType.parsimony_informative 0.0
61 keep SiteClassificationType.constant 0.0
62 keep SiteClassificationType.parsimony_informative 0.0
63 keep SiteClassificationType.parsimony_informative 0.0
64 keep SiteClassificationType.singleton 0.0
65 keep SiteClassificationType.parsimony_informative 0.0
66 keep SiteClassificationType.singleton 0.0
67 keep SiteClassificationType.parsimony_informative 0.0
68 keep SiteClassificationType.parsimony_informative 0.0
69 keep SiteClassificationType.parsimony_informative 0.0
70 keep SiteClassificationType.constant 0.0
71 keep SiteClassificationType.parsimony_informative 0.0
72 keep SiteClassificationType.parsimony_informative 0.0
73 keep SiteClassificationType.constant 0.0
74 keep SiteClassificationType.parsimony_informative 0.0
75 keep SiteClassificationType.constant 0.0
76 keep SiteClassificationType.constant 0.0
77 keep SiteClassificationType.parsimony_informative 0.0
78 keep SiteClassificationType.parsimony_informative 0.0
79 keep SiteClassificationType.parsimony_informative 0.0
80 keep SiteClassificationType.parsimony_informative 0.0
81 keep SiteClassificationType.parsimony_informative 0.0
82 keep SiteClassificationType.parsimony_informative 0.0
83 keep SiteClassificationType.parsimony_informative 0.0
84 keep SiteClassificationType.parsimony_informative 0.0
85 trim SiteClassificationType.other 0.9166666666666666
86 trim SiteClassificationType.other 0.9166666666666666
87 trim SiteClassificationType.other 0.9166666666666666
88 trim SiteClassificationType.other 0.9166666666666666
89 trim SiteClassificationType.other 0.9166666666666666
90 trim SiteClassificationType.other 0.9166666666666666
91 trim SiteClassificationType.other 0.9166666666666666
92 trim SiteClassificationType.other 0.9166666666666666
93 trim SiteClassificationType.other 0.9166666666666666
94 trim SiteClassificationType.other 0.9166666666666666
95 trim SiteClassificationType.other 0.9166666666666666
96 keep SiteClassificationType.other 0.8333333333333334
97 keep SiteClassificationType.other 0.8333333333333334
98 keep SiteClassificationType.other 0.8333333333333334
99 keep SiteClassificationType.other 0.8333333333333334
100 keep SiteClassificationType.other 0.8333333333333334
101 keep SiteClassificationType.constant 0.8333333333333334
102 keep SiteClassificationType.constant 0.8333333333333334
103 trim SiteClassificationType.other 0.9166666666666666
104 trim SiteClassificationType.other 0.9166666666666666
105 trim SiteClassificationType.other 0.9166666666666666
106 keep SiteClassificationType.singleton 0.4166666666666667
107 keep SiteClassificationType.parsimony_informative 0.4166666666666667
108 keep SiteClassificationType.parsimony_informative 0.3333333333333333
109 keep SiteClassificationType.parsimony_informative 0.5
110 keep SiteClassificationType.parsimony_informative 0.25
111 keep SiteClassificationType.singleton 0.0
112 keep SiteClassificationType.parsimony_informative 0.08333333333333333
113 keep SiteClassificationType.singleton 0.08333333333333333
114 keep SiteClassificationType.parsimony_informative 0.08333333333333333
115 keep SiteClassificationType.singleton 0.0
116 keep SiteClassificationType.singleton 0.0
117 keep SiteClassificationType.parsimony_informative 0.0
118 keep SiteClassificationType.other 0.8333333333333334
119 keep SiteClassificationType.parsimony_informative 0.0
120 keep SiteClassificationType.parsimony_informative 0.0
121 keep SiteClassificationType.parsimony_informative 0.0
122 keep SiteClassificationType.parsimony_informative 0.0
123 keep SiteClassificationType.parsimony_informative 0.0
124 keep SiteClassificationType.singleton 0.0
125 keep SiteClassificationType.parsimony_informative 0.0
126 keep SiteClassificationType.parsimony_informative 0.0
127 keep SiteClassificationType.parsimony_informative 0.0
128 keep SiteClassificationType.singleton 0.0
129 keep SiteClassificationType.parsimony_informative 0.0
130 keep SiteClassificationType.parsimony_informative 0.0
131 keep SiteClassificationType.parsimony_informative 0.0
132 keep SiteClassificationType.other 0.6666666666666666
133 keep SiteClassificationType.parsimony_informative 0.0
134 keep SiteClassificationType.parsimony_informative 0.0
135 keep SiteClassificationType.parsimony_informative 0.0
136 keep SiteClassificationType.parsimony_informative 0.0
137 keep SiteClassificationType.parsimony_informative 0.0
138 keep SiteClassificationType.singleton 0.0
139 keep SiteClassificationType.parsimony_informative 0.0
140 keep SiteClassificationType.parsimony_informative 0.0
141 keep SiteClassificationType.singleton 0.3333333333333333
142 trim SiteClassificationType.other 0.9166666666666666
143 trim SiteClassificationType.other 0.9166666666666666
144 keep SiteClassificationType.parsimony_informative 0.0
145 keep SiteClassificationType.parsimony_informative 0.0
146 keep SiteClassificationType.singleton 0.0
147 keep SiteClassificationType.parsimony_informative 0.0
148 keep SiteClassificationType.parsimony_informative 0.0
149 keep SiteClassificationType.parsimony_informative 0.0
150 keep SiteClassificationType.parsimony_informative 0.0
151 keep SiteClassificationType.parsimony_informative 0.0
152 keep SiteClassificationType.parsimony_informative 0.0
153 keep SiteClassificationType.parsimony_informative 0.0
154 keep SiteClassificationType.parsimony_informative 0.0
155 keep SiteClassificationType.singleton 0.6666666666666666
156 keep SiteClassificationType.parsimony_informative 0.0
157 keep SiteClassificationType.parsimony_informative 0.0
158 keep SiteClassificationType.parsimony_informative 0.0
159 keep SiteClassificationType.parsimony_informative 0.0
160 keep SiteClassificationType.parsimony_informative 0.08333333333333333
161 keep SiteClassificationType.parsimony_informative 0.08333333333333333
162 keep SiteClassificationType.parsimony_informative 0.0
163 keep SiteClassificationType.parsimony_informative 0.0
164 keep SiteClassificationType.parsimony_informative 0.0
165 keep SiteClassificationType.parsimony_informative 0.0
166 keep SiteClassificationType.parsimony_informative 0.0
167 keep SiteClassificationType.parsimony_informative 0.0
168 keep SiteClassificationType.parsimony_informative 0.0
169 keep SiteClassificationType.parsimony_informative 0.0
170 keep SiteClassificationType.parsimony_informative 0.0
171 keep SiteClassificationType.singleton 0.0
172 keep SiteClassificationType.parsimony_informative 0.0
173 trim SiteClassificationType.other 0.9166666666666666
174 keep SiteClassificationType.constant 0.75
175 keep SiteClassificationType.other 0.8333333333333334
176 keep SiteClassificationType.singleton 0.75
177 keep SiteClassificationType.parsimony_informative 0.0
178 keep SiteClassificationType.parsimony_informative 0.0
179 keep SiteClassificationType.parsimony_informative 0.0
180 keep SiteClassificationType.parsimony_informative 0.0
181 keep SiteClassificationType.parsimony_informative 0.0
182 keep SiteClassificationType.parsimony_informative 0.0
183 keep SiteClassificationType.parsimony_informative 0.0
184 keep SiteClassificationType.constant 0.0
185 keep SiteClassificationType.parsimony_informative 0.0
186 keep SiteClassificationType.parsimony_informative 0.0
187 keep SiteClassificationType.parsimony_informative 0.0
188 keep SiteClassificationType.parsimony_informative 0.0
189 keep SiteClassificationType.parsimony_informative 0.0
190 keep SiteClassificationType.constant 0.0
191 keep SiteClassificationType.parsimony_informative 0.0
192 keep SiteClassificationType.parsimony_informative 0.0
193 keep SiteClassificationType.parsimony_informative 0.0
194 keep SiteClassificationType.parsimony_informative 0.0
195 keep SiteClassificationType.parsimony_informative 0.0
196 keep SiteClassificationType.parsimony_informative 0.0
197 keep SiteClassificationType.parsimony_informative 0.0
198 trim SiteClassificationType.other 0.9166666666666666
199 keep SiteClassificationType.parsimony_informative 0.0
200 keep SiteClassificationType.parsimony_informative 0.0
201 keep SiteClassificationType.parsimony_informative 0.0
202 keep SiteClassificationType.parsimony_informative 0.0
203 keep SiteClassificationType.parsimony_informative 0.0
204 keep SiteClassificationType.singleton 0.75
205 trim SiteClassificationType.other 0.9166666666666666
206 keep SiteClassificationType.parsimony_informative 0.0
207 keep SiteClassificationType.parsimony_informative 0.0
208 keep SiteClassificationType.parsimony_informative 0.0
209 keep SiteClassificationType.singleton 0.0
210 keep SiteClassificationType.singleton 0.0
211 keep SiteClassificationType.parsimony_informative 0.0
212 keep SiteClassificationType.singleton 0.0
213 keep SiteClassificationType.singleton 0.0
214 keep SiteClassificationType.singleton 0.0
215 keep SiteClassificationType.parsimony_informative 0.0
216 trim SiteClassificationType.other 0.9166666666666666
217 trim SiteClassificationType.other 0.9166666666666666
218 trim SiteClassificationType.other 0.9166666666666666
219 keep SiteClassificationType.parsimony_informative 0.0
220 keep SiteClassificationType.parsimony_informative 0.0
221 keep SiteClassificationType.parsimony_informative 0.0
222 keep SiteClassificationType.parsimony_informative 0.0
223 keep SiteClassificationType.singleton 0.0
224 keep SiteClassificationType.parsimony_informative 0.0
225 keep SiteClassificationType.parsimony_informative 0.0
226 keep SiteClassificationType.parsimony_informative 0.0
227 keep SiteClassificationType.parsimony_informative 0.0
228 keep SiteClassificationType.parsimony_informative 0.0
229 trim SiteClassificationType.other 0.9166666666666666
230 trim SiteClassificationType.other 0.9166666666666666
231 trim SiteClassificationType.other 0.9166666666666666
232 keep SiteClassificationType.parsimony_informative 0.0
233 keep SiteClassificationType.parsimony_informative 0.0
234 keep SiteClassificationType.parsimony_informative 0.0
235 keep SiteClassificationType.parsimony_informative 0.0
236 keep SiteClassificationType.parsimony_informative 0.0
237 keep SiteClassificationType.parsimony_informative 0.0
238 keep SiteClassificationType.parsimony_informative 0.0
239 keep SiteClassificationType.other 0.8333333333333334
240 trim SiteClassificationType.other 0.9166666666666666
241 trim SiteClassificationType.other 0.9166666666666666
242 trim SiteClassificationType.other 0.9166666666666666
243 keep SiteClassificationType.other 0.8333333333333334
244 keep SiteClassificationType.parsimony_informative 0.0
245 keep SiteClassificationType.parsimony_informative 0.0
246 keep SiteClassificationType.parsimony_informative 0.0
247 keep SiteClassificationType.parsimony_informative 0.0
248 keep SiteClassificationType.parsimony_informative 0.0
249 keep SiteClassificationType.parsimony_informative 0.0
250 keep SiteClassificationType.parsimony_informative 0.0
251 keep SiteClassificationType.parsimony_informative 0.08333333333333333
252 keep SiteClassificationType.parsimony_informative 0.08333333333333333
253 keep SiteClassificationType.parsimony_informative 0.0
254 keep SiteClassificationType.parsimony_informative 0.0
255 keep SiteClassificationType.parsimony_informative 0.0
256 keep SiteClassificationType.parsimony_informative 0.0
257 keep SiteClassificationType.parsimony_informative 0.0
258 keep SiteClassificationType.parsimony_informative 0.0
259 keep SiteClassificationType.constant 0.0
260 keep SiteClassificationType.parsimony_informative 0.0
261 keep SiteClassificationType.parsimony_informative 0.0
262 keep SiteClassificationType.parsimony_informative 0.0
263 keep SiteClassificationType.parsimony_informative 0.0
264 keep SiteClassificationType.parsimony_informative 0.0
265 keep SiteClassificationType.parsimony_informative 0.0
266 keep SiteClassificationType.parsimony_informative 0.0
267 keep SiteClassificationType.parsimony_informative 0.0
268 keep SiteClassificationType.constant 0.8333333333333334
269 keep SiteClassificationType.parsimony_informative 0.0
270 keep SiteClassificationType.parsimony_informative 0.0
271 keep SiteClassificationType.singleton 0.0
272 keep SiteClassificationType.parsimony_informative 0.0
273 keep SiteClassificationType.singleton 0.0
274 keep SiteClassificationType.parsimony_informative 0.0
275 keep SiteClassificationType.parsimony_informative 0.0
276 keep SiteClassificationType.parsimony_informative 0.0
277 keep SiteClassificationType.parsimony_informative 0.0
278 keep SiteClassificationType.parsimony_informative 0.0
279 keep SiteClassificationType.constant 0.0
280 trim SiteClassificationType.other 0.9166666666666666
281 keep SiteClassificationType.parsimony_informative 0.0
282 keep SiteClassificationType.parsimony_informative 0.0
283 keep SiteClassificationType.parsimony_informative 0.0
284 keep SiteClassificationType.parsimony_informative 0.0
285 keep SiteClassificationType.parsimony_informative 0.0
286 keep SiteClassificationType.parsimony_informative 0.0
287 keep SiteClassificationType.parsimony_informative 0.0
288 keep SiteClassificationType.parsimony_informative 0.0
289 keep SiteClassificationType.parsimony_informative 0.0
290 keep SiteClassificationType.singleton 0.0
291 keep SiteClassificationType.parsimony_informative 0.0
292 keep SiteClassificationType.parsimony_informative 0.0
293 keep SiteClassificationType.parsimony_informative 0.0
294 keep SiteClassificationType.parsimony_informative 0.0
295 trim SiteClassificationType.other 0.9166666666666666
296 trim SiteClassificationType.other 0.9166666666666666
297 keep SiteClassificationType.singleton 0.08333333333333333
298 keep SiteClassificationType.parsimony_informative 0.08333333333333333
299 keep SiteClassificationType.parsimony_informative 0.0
300 keep SiteClassificationType.parsimony_informative 0.0
301 keep SiteClassificationType.parsimony_informative 0.0
302 keep SiteClassificationType.parsimony_informative 0.0
303 keep SiteClassificationType.parsimony_informative 0.0
304 keep SiteClassificationType.constant 0.0
305 keep SiteClassificationType.constant 0.0
306 keep SiteClassificationType.parsimony_informative 0.0
307 keep SiteClassificationType.singleton 0.0
308 keep SiteClassificationType.parsimony_informative 0.0
309 keep SiteClassificationType.parsimony_informative 0.0
310 keep SiteClassificationType.parsimony_informative 0.0
311 keep SiteClassificationType.parsimony_informative 0.0
312 keep SiteClassificationType.parsimony_informative 0.0
313 trim SiteClassificationType.other 0.9166666666666666
314 trim SiteClassificationType.other 0.9166666666666666
315 trim SiteClassificationType.other 0.9166666666666666
316 trim SiteClassificationType.other 0.9166666666666666
317 keep SiteClassificationType.parsimony_informative 0.08333333333333333
318 keep SiteClassificationType.parsimony_informative 0.0
319 keep SiteClassificationType.parsimony_informative 0.0
320 keep SiteClassificationType.parsimony_informative 0.0
321 keep SiteClassificationType.parsimony_informative 0.0
322 trim SiteClassificationType.other 0.9166666666666666
323 keep SiteClassificationType.parsimony_informative 0.0
324 keep SiteClassificationType.parsimony_informative 0.0
325 keep SiteClassificationType.parsimony_informative 0.0
326 keep SiteClassificationType.parsimony_informative 0.0
327 keep SiteClassificationType.constant 0.0
328 keep SiteClassificationType.parsimony_informative 0.0
329 keep SiteClassificationType.singleton 0.0
330 keep SiteClassificationType.constant 0.0
331 keep SiteClassificationType.singleton 0.0
332 keep SiteClassificationType.parsimony_informative 0.0
333 keep SiteClassificationType.constant 0.0
334 keep SiteClassificationType.parsimony_informative 0.0
335 keep SiteClassificationType.singleton 0.0
336 keep SiteClassificationType.singleton 0.0
337 keep SiteClassificationType.parsimony_informative 0.0
338 keep SiteClassificationType.parsimony_informative 0.0
339 keep SiteClassificationType.parsimony_informative 0.0
340 keep SiteClassificationType.constant 0.0
341 keep SiteClassificationType.parsimony_informative 0.0
342 keep SiteClassificationType.constant 0.0
343 keep SiteClassificationType.parsimony_informative 0.0
344 keep SiteClassificationType.parsimony_informative 0.0
345 keep SiteClassificationType.constant 0.0
346 keep SiteClassificationType.parsimony_informative 0.0
347 keep SiteClassificationType.parsimony_informative 0.0
348 keep SiteClassificationType.parsimony_informative 0.0
349 keep SiteClassificationType.constant 0.0
350 keep SiteClassificationType.parsimony_informative 0.0
351 keep SiteClassificationType.parsimony_informative 0.0
352 keep SiteClassificationType.singleton 0.0
353 keep SiteClassificationType.parsimony_informative 0.0
354 trim SiteClassificationType.other 0.9166666666666666
355 keep SiteClassificationType.parsimony_informative 0.0
356 keep SiteClassificationType.parsimony_informative 0.0
357 keep SiteClassificationType.parsimony_informative 0.0
358 keep SiteClassificationType.parsimony_informative 0.0
359 keep SiteClassificationType.singleton 0.0
360 keep SiteClassificationType.parsimony_informative 0.0
361 keep SiteClassificationType.singleton 0.0
362 keep SiteClassificationType.parsimony_informative 0.0
363 keep SiteClassificationType.parsimony_informative 0.0
364 keep SiteClassificationType.parsimony_informative 0.0
365 keep SiteClassificationType.constant 0.0
366 keep SiteClassificationType.parsimony_informative 0.0
367 keep SiteClassificationType.parsimony_informative 0.0
368 keep SiteClassificationType.parsimony_informative 0.0
369 keep SiteClassificationType.constant 0.0
370 keep SiteClassificationType.singleton 0.0
371 keep SiteClassificationType.parsimony_informative 0.0
372 keep SiteClassificationType.parsimony_informative 0.0
373 keep SiteClassificationType.singleton 0.0
374 keep SiteClassificationType.parsimony_informative 0.0
375 keep SiteClassificationType.singleton 0.0
376 keep SiteClassificationType.parsimony_informative 0.0
377 keep SiteClassificationType.parsimony_informative 0.0
378 keep SiteClassificationType.parsimony_informative 0.0
379 keep SiteClassificationType.singleton 0.0
380 keep SiteClassificationType.parsimony_informative 0.0
381 keep SiteClassificationType.parsimony_informative 0.0
382 keep SiteClassificationType.constant 0.0
383 keep SiteClassificationType.parsimony_informative 0.0
384 keep SiteClassificationType.constant 0.0
385 keep SiteClassificationType.constant 0.0
386 keep SiteClassificationType.parsimony_informative 0.0
387 keep SiteClassificationType.singleton 0.0
388 keep SiteClassificationType.constant 0.0
389 keep SiteClassificationType.singleton 0.0
390 keep SiteClassificationType.singleton 0.0
391 keep SiteClassificationType.singleton 0.0
392 keep SiteClassificationType.constant 0.0
393 keep SiteClassificationType.singleton 0.0
394 keep SiteClassificationType.parsimony_informative 0.0
395 keep SiteClassificationType.parsimony_informative 0.0
396 keep SiteClassificationType.singleton 0.0
397 keep SiteClassificationType.singleton 0.0
398 keep SiteClassificationType.singleton 0.0
399 keep SiteClassificationType.parsimony_informative 0.0
400 keep SiteClassificationType.constant 0.0
401 keep SiteClassificationType.singleton 0.0
402 keep SiteClassificationType.singleton 0.0
403 keep SiteClassificationType.constant 0.0
404 keep SiteClassificationType.parsimony_informative 0.0
405 keep SiteClassificationType.constant 0.0
406 keep SiteClassificationType.parsimony_informative 0.0
407 keep SiteClassificationType.parsimony_informative 0.0
408 keep SiteClassificationType.parsimony_informative 0.0
409 keep SiteClassificationType.constant 0.0
410 keep SiteClassificationType.parsimony_informative 0.0
411 keep SiteClassificationType.parsimony_informative 0.0
412 keep SiteClassificationType.parsimony_informative 0.0
413 keep SiteClassificationType.parsimony_informative 0.0
414 keep SiteClassificationType.constant 0.0
415 keep SiteClassificationType.parsimony_informative 0.0
416 keep SiteClassificationType.singleton 0.0
417 keep SiteClassificationType.parsimony_informative 0.0
418 keep SiteClassificationType.parsimony_informative 0.0
419 keep SiteClassificationType.constant 0.0
420 keep SiteClassificationType.constant 0.0
421 keep SiteClassificationType.parsimony_informative 0.0
422 keep SiteClassificationType.constant 0.0
423 keep SiteClassificationType.constant 0.0
424 keep SiteClassificationType.singleton 0.0
425 keep SiteClassificationType.parsimony_informative 0.0
426 keep SiteClassificationType.parsimony_informative 0.0
427 keep SiteClassificationType.parsimony_informative 0.0
428 keep SiteClassificationType.parsimony_informative 0.0
429 keep SiteClassificationType.parsimony_informative 0.0
430 keep SiteClassificationType.parsimony_informative 0.0
431 keep SiteClassificationType.constant 0.0
432 keep SiteClassificationType.parsimony_informative 0.0
433 keep SiteClassificationType.constant 0.0
434 keep SiteClassificationType.parsimony_informative 0.0
435 keep SiteClassificationType.constant 0.0
436 keep SiteClassificationType.parsimony_informative 0.0
437 keep SiteClassificationType.parsimony_informative 0.0
438 keep SiteClassificationType.parsimony_informative 0.0
439 keep SiteClassificationType.constant 0.0
440 keep SiteClassificationType.parsimony_informative 0.0
441 keep SiteClassificationType.parsimony_informative 0.0
442 keep SiteClassificationType.parsimony_informative 0.0
443 keep SiteClassificationType.constant 0.0
444 keep SiteClassificationType.parsimony_informative 0.0
445 keep SiteClassificationType.parsimony_informative 0.0
446 keep SiteClassificationType.parsimony_informative 0.0
447 keep SiteClassificationType.parsimony_informative 0.0
448 keep SiteClassificationType.parsimony_informative 0.0
449 keep SiteClassificationType.parsimony_informative 0.0
450 keep SiteClassificationType.parsimony_informative 0.0
451 keep SiteClassificationType.singleton 0.0
452 keep SiteClassificationType.parsimony_informative 0.0
453 keep SiteClassificationType.constant 0.0
454 keep SiteClassificationType.parsimony_informative 0.0
455 keep SiteClassificationType.parsimony_informative 0.0
456 keep SiteClassificationType.parsimony_informative 0.0
457 keep SiteClassificationType.parsimony_informative 0.0
458 keep SiteClassificationType.parsimony_informative 0.0
459 keep SiteClassificationType.parsimony_informative 0.0
460 keep SiteClassificationType.parsimony_informative 0.0
461 keep SiteClassificationType.parsimony_informative 0.0
462 keep SiteClassificationType.parsimony_informative 0.0
463 keep SiteClassificationType.parsimony_informative 0.0
464 keep SiteClassificationType.parsimony_informative 0.0
465 keep SiteClassificationType.parsimony_informative 0.0
466 keep SiteClassificationType.parsimony_informative 0.0
467 keep SiteClassificationType.parsimony_informative 0.0
468 trim SiteClassificationType.other 0.9166666666666666
469 keep SiteClassificationType.parsimony_informative 0.16666666666666666
470 keep SiteClassificationType.parsimony_informative 0.16666666666666666
471 keep SiteClassificationType.singleton 0.5833333333333334
472 keep SiteClassificationType.singleton 0.5833333333333334
473 keep SiteClassificationType.other 0.5
474 keep SiteClassificationType.parsimony_informative 0.5
475 trim SiteClassificationType.other 0.9166666666666666
476 trim SiteClassificationType.other 0.9166666666666666
477 trim SiteClassificationType.other 0.9166666666666666
478 trim SiteClassificationType.other 0.9166666666666666
479 keep SiteClassificationType.other 0.8333333333333334
480 keep SiteClassificationType.other 0.8333333333333334
481 keep SiteClassificationType.other 0.8333333333333334
482 keep SiteClassificationType.other 0.75
483 keep SiteClassificationType.parsimony_informative 0.08333333333333333
484 keep SiteClassificationType.parsimony_informative 0.08333333333333333
485 keep SiteClassificationType.parsimony_informative 0.08333333333333333
486 keep SiteClassificationType.parsimony_informative 0.25
487 keep SiteClassificationType.parsimony_informative 0.08333333333333333
488 keep SiteClassificationType.parsimony_informative 0.08333333333333333
489 keep SiteClassificationType.parsimony_informative 0.08333333333333333
490 keep SiteClassificationType.parsimony_informative 0.08333333333333333
491 keep SiteClassificationType.parsimony_informative 0.08333333333333333
492 keep SiteClassificationType.parsimony_informative 0.08333333333333333
493 keep SiteClassificationType.parsimony_informative 0.08333333333333333
494 keep SiteClassificationType.parsimony_informative 0.08333333333333333
495 keep SiteClassificationType.parsimony_informative 0.0
496 keep SiteClassificationType.parsimony_informative 0.0
497 keep SiteClassificationType.parsimony_informative 0.08333333333333333
498 keep SiteClassificationType.parsimony_informative 0.08333333333333333
499 keep SiteClassificationType.parsimony_informative 0.08333333333333333
500 keep SiteClassificationType.other 0.5
501 keep SiteClassificationType.singleton 0.08333333333333333
502 keep SiteClassificationType.parsimony_informative 0.08333333333333333
503 keep SiteClassificationType.parsimony_informative 0.08333333333333333
504 keep SiteClassificationType.parsimony_informative 0.08333333333333333
505 keep SiteClassificationType.parsimony_informative 0.08333333333333333
506 keep SiteClassificationType.parsimony_informative 0.08333333333333333
507 keep SiteClassificationType.parsimony_informative 0.08333333333333333
508 keep SiteClassificationType.parsimony_informative 0.08333333333333333
509 keep SiteClassificationType.parsimony_informative 0.16666666666666666
510 keep SiteClassificationType.parsimony_informative 0.25
511 keep SiteClassificationType.parsimony_informative 0.3333333333333333
512 keep SiteClassificationType.singleton 0.3333333333333333
513 keep SiteClassificationType.parsimony_informative 0.3333333333333333
514 keep SiteClassificationType.singleton 0.5833333333333334
515 keep SiteClassificationType.singleton 0.5833333333333334
516 keep SiteClassificationType.other 0.8333333333333334
517 keep SiteClassificationType.other 0.8333333333333334
518 keep SiteClassificationType.other 0.8333333333333334
519 keep SiteClassificationType.other 0.8333333333333334
520 keep SiteClassificationType.other 0.8333333333333334
521 keep SiteClassificationType.constant 0.8333333333333334
522 keep SiteClassificationType.other 0.8333333333333334
523 keep SiteClassificationType.other 0.8333333333333334
524 trim SiteClassificationType.other 0.9166666666666666
525 trim SiteClassificationType.other 0.9166666666666666
526 trim SiteClassificationType.other 0.9166666666666666
527 trim SiteClassificationType.other 0.9166666666666666
528 trim SiteClassificationType.other 0.9166666666666666
529 trim SiteClassificationType.other 0.9166666666666666
530 trim SiteClassificationType.other 0.9166666666666666
531 trim SiteClassificationType.other 0.9166666666666666
532 trim SiteClassificationType.other 0.9166666666666666
533 trim SiteClassificationType.other 0.9166666666666666
534 trim SiteClassificationType.other 0.9166666666666666
535 trim SiteClassificationType.other 0.9166666666666666
536 trim SiteClassificationType.other 0.9166666666666666
537 trim SiteClassificationType.other 0.9166666666666666
538 trim SiteClassificationType.other 0.9166666666666666
539 trim SiteClassificationType.other 0.9166666666666666
540 trim SiteClassificationType.other 0.9166666666666666
541 trim SiteClassificationType.other 0.9166666666666666
542 trim SiteClassificationType.other 0.9166666666666666
543 trim SiteClassificationType.other 0.9166666666666666
544 trim SiteClassificationType.other 0.9166666666666666
545 trim SiteClassificationType.other 0.9166666666666666
546 trim SiteClassificationType.other 0.9166666666666666
547 trim SiteClassificationType.other 0.9166666666666666
548 keep SiteClassificationType.other 0.75
549 keep SiteClassificationType.parsimony_informative 0.25
550 keep SiteClassificationType.parsimony_informative 0.25
551 keep SiteClassificationType.parsimony_informative 0.08333333333333333
552 keep SiteClassificationType.parsimony_informative 0.08333333333333333
553 keep SiteClassificationType.parsimony_informative 0.08333333333333333
554 keep SiteClassificationType.parsimony_informative 0.08333333333333333
555 keep SiteClassificationType.singleton 0.08333333333333333
556 keep SiteClassificationType.parsimony_informative 0.08333333333333333
557 keep SiteClassificationType.parsimony_informative 0.08333333333333333
558 keep SiteClassificationType.singleton 0.08333333333333333
559 keep SiteClassificationType.parsimony_informative 0.08333333333333333
560 keep SiteClassificationType.parsimony_informative 0.08333333333333333
561 keep SiteClassificationType.parsimony_informative 0.08333333333333333
562 keep SiteClassificationType.parsimony_informative 0.08333333333333333
563 keep SiteClassificationType.singleton 0.5833333333333334
564 keep SiteClassificationType.other 0.5833333333333334
565 keep SiteClassificationType.singleton 0.5833333333333334
566 keep SiteClassificationType.singleton 0.5833333333333334
567 keep SiteClassificationType.other 0.6666666666666666
568 keep SiteClassificationType.singleton 0.6666666666666666
569 keep SiteClassificationType.other 0.75
570 trim SiteClassificationType.other 0.9166666666666666
571 trim SiteClassificationType.other 0.9166666666666666
572 keep SiteClassificationType.other 0.8333333333333334
573 keep SiteClassificationType.parsimony_informative 0.5833333333333334
574 keep SiteClassificationType.parsimony_informative 0.25
575 keep SiteClassificationType.singleton 0.25
576 keep SiteClassificationType.parsimony_informative 0.25
577 keep SiteClassificationType.singleton 0.25
578 keep SiteClassificationType.parsimony_informative 0.25
579 keep SiteClassificationType.parsimony_informative 0.25
580 keep SiteClassificationType.singleton 0.5833333333333334
581 keep SiteClassificationType.singleton 0.5833333333333334
582 keep SiteClassificationType.parsimony_informative 0.5833333333333334
583 keep SiteClassificationType.constant 0.8333333333333334
584 trim SiteClassificationType.other 0.9166666666666666
585 trim SiteClassificationType.other 0.9166666666666666
586 trim SiteClassificationType.other 0.9166666666666666
587 trim SiteClassificationType.other 0.9166666666666666
588 keep SiteClassificationType.constant 0.8333333333333334
589 keep SiteClassificationType.parsimony_informative 0.08333333333333333
590 keep SiteClassificationType.parsimony_informative 0.08333333333333333
591 keep SiteClassificationType.parsimony_informative 0.08333333333333333
592 keep SiteClassificationType.parsimony_informative 0.0
593 keep SiteClassificationType.parsimony_informative 0.0
594 keep SiteClassificationType.parsimony_informative 0.0
595 keep SiteClassificationType.parsimony_informative 0.0
596 keep SiteClassificationType.other 0.8333333333333334
597 trim SiteClassificationType.other 0.9166666666666666
598 keep SiteClassificationType.parsimony_informative 0.08333333333333333
599 keep SiteClassificationType.singleton 0.08333333333333333
600 keep SiteClassificationType.parsimony_informative 0.08333333333333333
601 keep SiteClassificationType.singleton 0.08333333333333333
602 keep SiteClassificationType.parsimony_informative 0.0
603 keep SiteClassificationType.parsimony_informative 0.0
604 keep SiteClassificationType.singleton 0.0
605 keep SiteClassificationType.parsimony_informative 0.0
606 keep SiteClassificationType.parsimony_informative 0.0
607 keep SiteClassificationType.parsimony_informative 0.0
608 keep SiteClassificationType.parsimony_informative 0.0
609 keep SiteClassificationType.constant 0.0
610 keep SiteClassificationType.singleton 0.0
611 keep SiteClassificationType.singleton 0.0
612 keep SiteClassificationType.parsimony_informative 0.0
613 keep SiteClassificationType.parsimony_informative 0.0
614 keep SiteClassificationType.parsimony_informative 0.0
615 keep SiteClassificationType.parsimony_informative 0.0
616 keep SiteClassificationType.other 0.8333333333333334
617 keep SiteClassificationType.parsimony_informative 0.5
618 keep SiteClassificationType.singleton 0.5
619 keep SiteClassificationType.singleton 0.5
620 keep SiteClassificationType.other 0.8333333333333334
621 trim SiteClassificationType.other 0.9166666666666666
622 trim SiteClassificationType.other 0.9166666666666666
623 trim SiteClassificationType.other 0.9166666666666666
624 keep SiteClassificationType.singleton 0.4166666666666667
625 keep SiteClassificationType.singleton 0.4166666666666667
626 keep SiteClassificationType.parsimony_informative 0.25
627 keep SiteClassificationType.parsimony_informative 0.16666666666666666
628 keep SiteClassificationType.parsimony_informative 0.16666666666666666
629 keep SiteClassificationType.parsimony_informative 0.16666666666666666
630 keep SiteClassificationType.parsimony_informative 0.16666666666666666
631 keep SiteClassificationType.parsimony_informative 0.16666666666666666
632 keep SiteClassificationType.singleton 0.16666666666666666
633 keep SiteClassificationType.singleton 0.08333333333333333
634 keep SiteClassificationType.parsimony_informative 0.08333333333333333
635 keep SiteClassificationType.parsimony_informative 0.08333333333333333
636 keep SiteClassificationType.parsimony_informative 0.08333333333333333
637 keep SiteClassificationType.singleton 0.4166666666666667
638 keep SiteClassificationType.singleton 0.4166666666666667
639 keep SiteClassificationType.parsimony_informative 0.4166666666666667
640 keep SiteClassificationType.singleton 0.4166666666666667
641 keep SiteClassificationType.parsimony_informative 0.4166666666666667
642 keep SiteClassificationType.parsimony_informative 0.4166666666666667
643 keep SiteClassificationType.parsimony_informative 0.4166666666666667
644 keep SiteClassificationType.singleton 0.4166666666666667
645 keep SiteClassificationType.singleton 0.5
646 keep SiteClassificationType.parsimony_informative 0.5
647 keep SiteClassificationType.parsimony_informative 0.08333333333333333
648 keep SiteClassificationType.parsimony_informative 0.08333333333333333
649 keep SiteClassificationType.parsimony_informative 0.08333333333333333
650 keep SiteClassificationType.constant 0.0
651 keep SiteClassificationType.singleton 0.0
652 keep SiteClassificationType.parsimony_informative 0.0
653 keep SiteClassificationType.parsimony_informative 0.0
654 keep SiteClassificationType.parsimony_informative 0.0
655 keep SiteClassificationType.singleton 0.0
656 keep SiteClassificationType.singleton 0.0
657 keep SiteClassificationType.parsimony_informative 0.0
658 keep SiteClassificationType.parsimony_informative 0.0
659 keep SiteClassificationType.parsimony_informative 0.0
660 keep SiteClassificationType.parsimony_informative 0.0
661 keep SiteClassificationType.singleton 0.75
662 trim SiteClassificationType.other 0.9166666666666666
663 trim SiteClassificationType.other 0.9166666666666666
664 trim SiteClassificationType.other 0.9166666666666666
665 trim SiteClassificationType.other 0.9166666666666666
666 trim SiteClassificationType.other 0.9166666666666666
667 trim SiteClassificationType.other 0.9166666666666666
668 keep SiteClassificationType.parsimony_informative 0.25
669 keep SiteClassificationType.singleton 0.25
670 trim SiteClassificationType.other 0.9166666666666666
671 trim SiteClassificationType.other 0.9166666666666666
672 keep SiteClassificationType.other 0.8333333333333334
673 keep SiteClassificationType.other 0.8333333333333334
674 keep SiteClassificationType.other 0.8333333333333334
675 keep SiteClassificationType.other 0.8333333333333334
676 keep SiteClassificationType.constant 0.8333333333333334
677 keep SiteClassificationType.other 0.8333333333333334
678 keep SiteClassificationType.constant 0.8333333333333334
679 keep SiteClassificationType.other 0.8333333333333334
680 keep SiteClassificationType.other 0.8333333333333334
681 keep SiteClassificationType.other 0.75
682 keep SiteClassificationType.singleton 0.75
683 keep SiteClassificationType.singleton 0.75
684 keep SiteClassificationType.singleton 0.75
685 keep SiteClassificationType.singleton 0.75
686 trim SiteClassificationType.other 0.9166666666666666
687 trim SiteClassificationType.other 0.9166666666666666
688 trim SiteClassificationType.other 0.9166666666666666
689 trim SiteClassificationType.other 0.9166666666666666
690 trim SiteClassificationType.other 0.9166666666666666
691 trim SiteClassificationType.other 0.9166666666666666
692 keep SiteClassificationType.singleton 0.75
693 keep SiteClassificationType.singleton 0.4166666666666667
694 keep SiteClassificationType.parsimony_informative 0.4166666666666667
695 keep SiteClassificationType.parsimony_informative 0.4166666666666667
696 keep SiteClassificationType.singleton 0.5833333333333334
697 keep SiteClassificationType.singleton 0.5833333333333334
698 keep SiteClassificationType.constant 0.5833333333333334
699 keep SiteClassificationType.constant 0.5833333333333334
700 keep SiteClassificationType.singleton 0.5833333333333334
701 keep SiteClassificationType.parsimony_informative 0.08333333333333333
702 keep SiteClassificationType.parsimony_informative 0.08333333333333333
703 keep SiteClassificationType.parsimony_informative 0.08333333333333333
704 keep SiteClassificationType.constant 0.08333333333333333
705 keep SiteClassificationType.singleton 0.08333333333333333
706 keep SiteClassificationType.parsimony_informative 0.08333333333333333
707 keep SiteClassificationType.parsimony_informative 0.16666666666666666
708 keep SiteClassificationType.parsimony_informative 0.16666666666666666
709 keep SiteClassificationType.singleton 0.16666666666666666
710 keep SiteClassificationType.singleton 0.16666666666666666
711 keep SiteClassificationType.singleton 0.16666666666666666
712 keep SiteClassificationType.parsimony_informative 0.16666666666666666
713 keep SiteClassificationType.parsimony_informative 0.16666666666666666
714 keep SiteClassificationType.parsimony_informative 0.08333333333333333
715 keep SiteClassificationType.singleton 0.4166666666666667
716 keep SiteClassificationType.parsimony_informative 0.4166666666666667
717 keep SiteClassificationType.parsimony_informative 0.3333333333333333
718 keep SiteClassificationType.singleton 0.3333333333333333
719 keep SiteClassificationType.parsimony_informative 0.3333333333333333
720 keep SiteClassificationType.parsimony_informative 0.3333333333333333
721 keep SiteClassificationType.singleton 0.3333333333333333
722 keep SiteClassificationType.other 0.8333333333333334
723 keep SiteClassificationType.other 0.8333333333333334
724 trim SiteClassificationType.other 0.9166666666666666
725 trim SiteClassificationType.other 0.9166666666666666
726 trim SiteClassificationType.other 0.9166666666666666
727 trim SiteClassificationType.other 0.9166666666666666
728 trim SiteClassificationType.other 0.9166666666666666
729 trim SiteClassificationType.other 0.9166666666666666
730 trim SiteClassificationType.other 0.9166666666666666
731 trim SiteClassificationType.other 0.9166666666666666
732 keep SiteClassificationType.other 0.75
733 keep SiteClassificationType.parsimony_informative 0.0
734 keep SiteClassificationType.parsimony_informative 0.0
735 keep SiteClassificationType.singleton 0.0
736 keep SiteClassificationType.constant 0.0
737 keep SiteClassificationType.constant 0.0
738 keep SiteClassificationType.other 0.8333333333333334
739 trim SiteClassificationType.other 0.9166666666666666
740 trim SiteClassificationType.other 0.9166666666666666
741 trim SiteClassificationType.other 0.9166666666666666
742 trim SiteClassificationType.other 0.9166666666666666
743 trim SiteClassificationType.other 0.9166666666666666
744 trim SiteClassificationType.other 0.9166666666666666
745 trim SiteClassificationType.other 0.9166666666666666
746 trim SiteClassificationType.other 0.9166666666666666
747 keep SiteClassificationType.parsimony_informative 0.0
748 keep SiteClassificationType.singleton 0.0
749 keep SiteClassificationType.parsimony_informative 0.0
750 keep SiteClassificationType.constant 0.0
751 keep SiteClassificationType.constant 0.0
752 keep SiteClassificationType.parsimony_informative 0.0
753 keep SiteClassificationType.parsimony_informative 0.0
754 keep SiteClassificationType.parsimony_informative 0.0
755 keep SiteClassificationType.constant 0.0
756 keep SiteClassificationType.singleton 0.0
757 keep SiteClassificationType.parsimony_informative 0.08333333333333333
758 keep SiteClassificationType.parsimony_informative 0.16666666666666666
759 keep SiteClassificationType.singleton 0.16666666666666666
760 keep SiteClassificationType.parsimony_informative 0.16666666666666666
761 keep SiteClassificationType.parsimony_informative 0.5
762 trim SiteClassificationType.other 0.9166666666666666
763 trim SiteClassificationType.other 0.9166666666666666
764 trim SiteClassificationType.other 0.9166666666666666
765 trim SiteClassificationType.other 0.9166666666666666
766 trim SiteClassificationType.other 0.9166666666666666
767 trim SiteClassificationType.other 0.9166666666666666
768 keep SiteClassificationType.singleton 0.5
769 keep SiteClassificationType.parsimony_informative 0.0
770 keep SiteClassificationType.singleton 0.0
771 keep SiteClassificationType.parsimony_informative 0.0
772 keep SiteClassificationType.parsimony_informative 0.0
773 keep SiteClassificationType.parsimony_informative 0.0
774 keep SiteClassificationType.parsimony_informative 0.0
775 keep SiteClassificationType.parsimony_informative 0.0
776 keep SiteClassificationType.parsimony_informative 0.0
777 keep SiteClassificationType.constant 0.0
778 keep SiteClassificationType.singleton 0.0
779 keep SiteClassificationType.parsimony_informative 0.5833333333333334
780 keep SiteClassificationType.constant 0.5833333333333334
781 keep SiteClassificationType.singleton 0.5833333333333334
782 keep SiteClassificationType.singleton 0.5833333333333334
783 keep SiteClassificationType.other 0.75
784 keep SiteClassificationType.constant 0.8333333333333334
785 trim SiteClassificationType.other 0.9166666666666666
786 trim SiteClassificationType.other 0.9166666666666666
787 trim SiteClassificationType.other 0.9166666666666666
788 trim SiteClassificationType.other 0.9166666666666666
789 trim SiteClassificationType.other 0.9166666666666666
790 trim SiteClassificationType.other 0.9166666666666666
791 trim SiteClassificationType.other 0.9166666666666666
792 trim SiteClassificationType.other 0.9166666666666666
793 trim SiteClassificationType.other 0.9166666666666666
794 trim SiteClassificationType.other 0.9166666666666666
795 trim SiteClassificationType.other 0.9166666666666666
796 trim SiteClassificationType.other 0.9166666666666666
797 trim SiteClassificationType.other 0.9166666666666666
798 trim SiteClassificationType.other 0.9166666666666666
799 trim SiteClassificationType.other 0.9166666666666666
800 trim SiteClassificationType.other 0.9166666666666666
801 keep SiteClassificationType.other 0.8333333333333334
802 keep SiteClassificationType.singleton 0.75
803 keep SiteClassificationType.singleton 0.75
804 keep SiteClassificationType.parsimony_informative 0.0
805 keep SiteClassificationType.singleton 0.0
806 keep SiteClassificationType.parsimony_informative 0.0
807 keep SiteClassificationType.singleton 0.0
808 keep SiteClassificationType.constant 0.0
809 keep SiteClassificationType.parsimony_informative 0.0
810 keep SiteClassificationType.constant 0.8333333333333334
811 keep SiteClassificationType.constant 0.8333333333333334
812 keep SiteClassificationType.constant 0.8333333333333334
813 keep SiteClassificationType.constant 0.8333333333333334
814 keep SiteClassificationType.constant 0.8333333333333334
815 keep SiteClassificationType.constant 0.8333333333333334
816 keep SiteClassificationType.other 0.8333333333333334
817 keep SiteClassificationType.constant 0.8333333333333334
818 keep SiteClassificationType.other 0.8333333333333334
819 trim SiteClassificationType.other 0.9166666666666666
820 trim SiteClassificationType.other 0.9166666666666666
821 trim SiteClassificationType.other 0.9166666666666666
822 trim SiteClassificationType.other 0.9166666666666666
823 trim SiteClassificationType.other 0.9166666666666666
824 trim SiteClassificationType.other 0.9166666666666666
825 trim SiteClassificationType.other 0.9166666666666666
826 trim SiteClassificationType.other 0.9166666666666666
827 trim SiteClassificationType.other 0.9166666666666666
828 trim SiteClassificationType.other 0.9166666666666666
829 keep SiteClassificationType.other 0.8333333333333334
830 keep SiteClassificationType.other 0.8333333333333334
831 keep SiteClassificationType.other 0.8333333333333334
832 keep SiteClassificationType.other 0.8333333333333334
833 keep SiteClassificationType.other 0.8333333333333334
834 keep SiteClassificationType.singleton 0.0
835 keep SiteClassificationType.parsimony_informative 0.0
836 keep SiteClassificationType.constant 0.0
837 keep SiteClassificationType.singleton 0.0
838 keep SiteClassificationType.parsimony_informative 0.0
839 trim SiteClassificationType.other 0.9166666666666666
840 trim SiteClassificationType.other 0.9166666666666666
841 trim SiteClassificationType.other 0.9166666666666666
842 keep SiteClassificationType.parsimony_informative 0.25
843 keep SiteClassificationType.parsimony_informative 0.25
844 keep SiteClassificationType.parsimony_informative 0.25
845 keep SiteClassificationType.parsimony_informative 0.25
846 trim SiteClassificationType.other 0.9166666666666666
847 trim SiteClassificationType.other 0.9166666666666666
848 trim SiteClassificationType.other 0.9166666666666666
849 trim SiteClassificationType.other 0.9166666666666666
850 trim SiteClassificationType.other 0.9166666666666666
851 keep SiteClassificationType.other 0.8333333333333334
852 keep SiteClassificationType.other 0.8333333333333334
853 keep SiteClassificationType.singleton 0.3333333333333333
854 keep SiteClassificationType.singleton 0.5
855 keep SiteClassificationType.parsimony_informative 0.16666666666666666
856 keep SiteClassificationType.parsimony_informative 0.16666666666666666
857 keep SiteClassificationType.parsimony_informative 0.16666666666666666
858 keep SiteClassificationType.parsimony_informative 0.08333333333333333
859 keep SiteClassificationType.parsimony_informative 0.08333333333333333
860 keep SiteClassificationType.parsimony_informative 0.08333333333333333
861 keep SiteClassificationType.parsimony_informative 0.0
862 keep SiteClassificationType.singleton 0.0
863 keep SiteClassificationType.parsimony_informative 0.0
864 keep SiteClassificationType.singleton 0.0
865 keep SiteClassificationType.singleton 0.0
866 keep SiteClassificationType.parsimony_informative 0.0
867 keep SiteClassificationType.constant 0.0
868 keep SiteClassificationType.constant 0.0
869 keep SiteClassificationType.parsimony_informative 0.0
870 keep SiteClassificationType.parsimony_informative 0.0
871 keep SiteClassificationType.parsimony_informative 0.08333333333333333
872 keep SiteClassificationType.singleton 0.0
873 keep SiteClassificationType.singleton 0.0
874 keep SiteClassificationType.parsimony_informative 0.0
875 keep SiteClassificationType.parsimony_informative 0.0
876 keep SiteClassificationType.parsimony_informative 0.0
877 keep SiteClassificationType.parsimony_informative 0.0
878 keep SiteClassificationType.parsimony_informative 0.0
879 keep SiteClassificationType.parsimony_informative 0.0
880 keep SiteClassificationType.singleton 0.75
881 keep SiteClassificationType.other 0.75
882 keep SiteClassificationType.other 0.8333333333333334
883 keep SiteClassificationType.other 0.8333333333333334
884 keep SiteClassificationType.other 0.8333333333333334
885 keep SiteClassificationType.other 0.8333333333333334
886 keep SiteClassificationType.other 0.8333333333333334
887 keep SiteClassificationType.other 0.8333333333333334
888 keep SiteClassificationType.other 0.8333333333333334
889 keep SiteClassificationType.other 0.8333333333333334
890 keep SiteClassificationType.singleton 0.5
891 keep SiteClassificationType.parsimony_informative 0.4166666666666667
892 keep SiteClassificationType.parsimony_informative 0.0
893 keep SiteClassificationType.parsimony_informative 0.0
894 keep SiteClassificationType.parsimony_informative 0.0
895 keep SiteClassificationType.parsimony_informative 0.0
896 keep SiteClassificationType.parsimony_informative 0.0
897 keep SiteClassificationType.parsimony_informative 0.0
898 keep SiteClassificationType.constant 0.0
899 keep SiteClassificationType.singleton 0.0
900 trim SiteClassificationType.other 0.9166666666666666
901 trim SiteClassificationType.other 0.9166666666666666
902 trim SiteClassificationType.other 0.9166666666666666
903 trim SiteClassificationType.other 0.9166666666666666
904 keep SiteClassificationType.singleton 0.0
905 keep SiteClassificationType.parsimony_informative 0.0
906 keep SiteClassificationType.parsimony_informative 0.0
907 keep SiteClassificationType.singleton 0.0
908 keep SiteClassificationType.singleton 0.0
909 keep SiteClassificationType.singleton 0.0
910 keep SiteClassificationType.singleton 0.08333333333333333
911 keep SiteClassificationType.parsimony_informative 0.25
912 keep SiteClassificationType.parsimony_informative 0.16666666666666666
913 keep SiteClassificationType.parsimony_informative 0.16666666666666666
914 keep SiteClassificationType.parsimony_informative 0.3333333333333333
915 keep SiteClassificationType.parsimony_informative 0.3333333333333333
916 keep SiteClassificationType.singleton 0.3333333333333333
917 keep SiteClassificationType.singleton 0.4166666666666667
918 keep SiteClassificationType.singleton 0.4166666666666667
919 keep SiteClassificationType.other 0.5
920 keep SiteClassificationType.constant 0.8333333333333334
921 trim SiteClassificationType.other 0.9166666666666666
922 trim SiteClassificationType.other 0.9166666666666666
923 trim SiteClassificationType.other 0.9166666666666666
924 trim SiteClassificationType.other 0.9166666666666666
925 trim SiteClassificationType.other 0.9166666666666666
926 trim SiteClassificationType.other 0.9166666666666666
927 trim SiteClassificationType.other 0.9166666666666666
928 keep SiteClassificationType.constant 0.6666666666666666
929 keep SiteClassificationType.parsimony_informative 0.6666666666666666
930 keep SiteClassificationType.singleton 0.5833333333333334
931 keep SiteClassificationType.singleton 0.5833333333333334
932 keep SiteClassificationType.singleton 0.5833333333333334
933 keep SiteClassificationType.singleton 0.5833333333333334
934 keep SiteClassificationType.singleton 0.5833333333333334
935 keep SiteClassificationType.singleton 0.5
936 keep SiteClassificationType.singleton 0.5
937 keep SiteClassificationType.singleton 0.4166666666666667
938 keep SiteClassificationType.parsimony_informative 0.4166666666666667
939 keep SiteClassificationType.singleton 0.5
940 keep SiteClassificationType.singleton 0.5
941 keep SiteClassificationType.singleton 0.5833333333333334
942 keep SiteClassificationType.other 0.8333333333333334
943 keep SiteClassificationType.other 0.8333333333333334
944 trim SiteClassificationType.other 0.9166666666666666
945 trim SiteClassificationType.other 0.9166666666666666
946 trim SiteClassificationType.other 0.9166666666666666
947 trim SiteClassificationType.other 0.9166666666666666
948 trim SiteClassificationType.other 0.9166666666666666
949 trim SiteClassificationType.other 0.9166666666666666
950 trim SiteClassificationType.other 0.9166666666666666
951 trim SiteClassificationType.other 0.9166666666666666
952 keep SiteClassificationType.parsimony_informative 0.5833333333333334
953 keep SiteClassificationType.parsimony_informative 0.08333333333333333
954 keep SiteClassificationType.parsimony_informative 0.08333333333333333
955 keep SiteClassificationType.parsimony_informative 0.08333333333333333
956 keep SiteClassificationType.parsimony_informative 0.08333333333333333
957 keep SiteClassificationType.parsimony_informative 0.0
958 keep SiteClassificationType.parsimony_informative 0.0
959 keep SiteClassificationType.singleton 0.0
960 keep SiteClassificationType.singleton 0.0
961 keep SiteClassificationType.singleton 0.0
962 keep SiteClassificationType.parsimony_informative 0.0
963 keep SiteClassificationType.parsimony_informative 0.0
964 keep SiteClassificationType.parsimony_informative 0.08333333333333333
965 keep SiteClassificationType.parsimony_informative 0.08333333333333333
966 keep SiteClassificationType.parsimony_informative 0.08333333333333333
967 keep SiteClassificationType.parsimony_informative 0.08333333333333333
968 keep SiteClassificationType.parsimony_informative 0.08333333333333333
969 keep SiteClassificationType.parsimony_informative 0.08333333333333333
970 keep SiteClassificationType.parsimony_informative 0.08333333333333333
971 keep SiteClassificationType.parsimony_informative 0.4166666666666667
972 keep SiteClassificationType.singleton 0.4166666666666667
973 keep SiteClassificationType.singleton 0.5
974 trim SiteClassificationType.other 0.9166666666666666
975 trim SiteClassificationType.other 0.9166666666666666
976 trim SiteClassificationType.other 0.9166666666666666
977 keep SiteClassificationType.singleton 0.4166666666666667
978 keep SiteClassificationType.parsimony_informative 0.4166666666666667
979 keep SiteClassificationType.parsimony_informative 0.3333333333333333
980 keep SiteClassificationType.singleton 0.3333333333333333
981 keep SiteClassificationType.parsimony_informative 0.08333333333333333
982 keep SiteClassificationType.parsimony_informative 0.08333333333333333
983 keep SiteClassificationType.parsimony_informative 0.08333333333333333
984 keep SiteClassificationType.parsimony_informative 0.08333333333333333
985 keep SiteClassificationType.singleton 0.5
986 keep SiteClassificationType.singleton 0.5
987 keep SiteClassificationType.parsimony_informative 0.16666666666666666
988 keep SiteClassificationType.parsimony_informative 0.16666666666666666
989 keep SiteClassificationType.parsimony_informative 0.16666666666666666
990 keep SiteClassificationType.parsimony_informative 0.16666666666666666
991 keep SiteClassificationType.parsimony_informative 0.16666666666666666
992 keep SiteClassificationType.parsimony_informative 0.16666666666666666
993 keep SiteClassificationType.singleton 0.16666666666666666
994 keep SiteClassificationType.singleton 0.5833333333333334
995 keep SiteClassificationType.other 0.5833333333333334
996 keep SiteClassificationType.singleton 0.5833333333333334
997 keep SiteClassificationType.singleton 0.5833333333333334
998 keep SiteClassificationType.other 0.5833333333333334
999 keep SiteClassificationType.singleton 0.75
1000 trim SiteClassificationType.other 0.9166666666666666
1001 keep SiteClassificationType.singleton 0.4166666666666667
1002 keep SiteClassificationType.singleton 0.4166666666666667
1003 keep SiteClassificationType.singleton 0.16666666666666666
1004 keep SiteClassificationType.singleton 0.16666666666666666
1005 keep SiteClassificationType.parsimony_informative 0.16666666666666666
1006 keep SiteClassificationType.parsimony_informative 0.16666666666666666
1007 keep SiteClassificationType.parsimony_informative 0.16666666666666666
1008 keep SiteClassificationType.parsimony_informative 0.16666666666666666
1009 keep SiteClassificationType.parsimony_informative 0.08333333333333333
1010 keep SiteClassificationType.parsimony_informative 0.08333333333333333
1011 keep SiteClassificationType.parsimony_informative 0.08333333333333333
1012 keep SiteClassificationType.parsimony_informative 0.08333333333333333
1013 keep SiteClassificationType.singleton 0.08333333333333333
1014 keep SiteClassificationType.parsimony_informative 0.08333333333333333
1015 keep SiteClassificationType.singleton 0.16666666666666666
1016 keep SiteClassificationType.singleton 0.16666666666666666
1017 keep SiteClassificationType.parsimony_informative 0.3333333333333333
1018 keep SiteClassificationType.constant 0.75
1019 keep SiteClassificationType.constant 0.8333333333333334
1020 keep SiteClassificationType.other 0.8333333333333334
1021 keep SiteClassificationType.other 0.8333333333333334
1022 keep SiteClassificationType.singleton 0.5833333333333334
1023 keep SiteClassificationType.singleton 0.5833333333333334
1024 keep SiteClassificationType.other 0.5833333333333334
1025 keep SiteClassificationType.singleton 0.5833333333333334
1026 keep SiteClassificationType.singleton 0.5833333333333334
1027 keep SiteClassificationType.parsimony_informative 0.25
1028 keep SiteClassificationType.parsimony_informative 0.25
1029 keep SiteClassificationType.singleton 0.25
1030 keep SiteClassificationType.singleton 0.25
1031 keep SiteClassificationType.parsimony_informative 0.25
1032 keep SiteClassificationType.parsimony_informative 0.25
1033 keep SiteClassificationType.singleton 0.25
1034 keep SiteClassificationType.parsimony_informative 0.25
1035 keep SiteClassificationType.singleton 0.3333333333333333
1036 keep SiteClassificationType.singleton 0.3333333333333333
1037 keep SiteClassificationType.singleton 0.3333333333333333
1038 keep SiteClassificationType.parsimony_informative 0.4166666666666667
1039 keep SiteClassificationType.singleton 0.6666666666666666
1040 keep SiteClassificationType.singleton 0.6666666666666666
1041 keep SiteClassificationType.singleton 0.6666666666666666
1042 keep SiteClassificationType.other 0.6666666666666666
1043 trim SiteClassificationType.other 0.9166666666666666
1044 keep SiteClassificationType.singleton 0.6666666666666666
1045 keep SiteClassificationType.other 0.6666666666666666
1046 keep SiteClassificationType.other 0.6666666666666666
1047 keep SiteClassificationType.singleton 0.75
1048 keep SiteClassificationType.constant 0.8333333333333334
1049 keep SiteClassificationType.other 0.8333333333333334
1050 keep SiteClassificationType.other 0.8333333333333334
1051 keep SiteClassificationType.other 0.8333333333333334
1052 keep SiteClassificationType.constant 0.8333333333333334
1053 keep SiteClassificationType.other 0.8333333333333334
1054 keep SiteClassificationType.other 0.8333333333333334
1055 keep SiteClassificationType.other 0.8333333333333334
1056 keep SiteClassificationType.other 0.8333333333333334
1057 keep SiteClassificationType.other 0.8333333333333334
1058 keep SiteClassificationType.constant 0.8333333333333334
1059 keep SiteClassificationType.other 0.8333333333333334
1060 keep SiteClassificationType.other 0.8333333333333334
1061 keep SiteClassificationType.constant 0.8333333333333334
1062 keep SiteClassificationType.constant 0.8333333333333334
1063 keep SiteClassificationType.other 0.8333333333333334
1064 keep SiteClassificationType.constant 0.8333333333333334
1065 keep SiteClassificationType.other 0.8333333333333334
1066 trim SiteClassificationType.other 0.9166666666666666
1067 trim SiteClassificationType.other 0.9166666666666666
1068 trim SiteClassificationType.other 0.9166666666666666
1069 trim SiteClassificationType.other 0.9166666666666666
1070 trim SiteClassificationType.other 0.9166666666666666
1071 trim SiteClassificationType.other 0.9166666666666666
1072 keep SiteClassificationType.other 0.75
1073 keep SiteClassificationType.singleton 0.5
1074 keep SiteClassificationType.singleton 0.5
1075 keep SiteClassificationType.singleton 0.5
1076 keep SiteClassificationType.singleton 0.5
1077 keep SiteClassificationType.singleton 0.4166666666666667
1078 keep SiteClassificationType.parsimony_informative 0.3333333333333333
1079 keep SiteClassificationType.singleton 0.3333333333333333
1080 keep SiteClassificationType.singleton 0.3333333333333333
1081 keep SiteClassificationType.singleton 0.3333333333333333
1082 keep SiteClassificationType.parsimony_informative 0.3333333333333333
1083 keep SiteClassificationType.singleton 0.25
1084 keep SiteClassificationType.singleton 0.25
1085 keep SiteClassificationType.singleton 0.25
1086 keep SiteClassificationType.singleton 0.25
1087 keep SiteClassificationType.parsimony_informative 0.16666666666666666
1088 keep SiteClassificationType.parsimony_informative 0.16666666666666666
1089 trim SiteClassificationType.other 0.9166666666666666
1090 trim SiteClassificationType.other 0.9166666666666666
1091 trim SiteClassificationType.other 0.9166666666666666
1092 trim SiteClassificationType.other 0.9166666666666666
1093 trim SiteClassificationType.other 0.9166666666666666
1094 trim SiteClassificationType.other 0.9166666666666666
1095 trim SiteClassificationType.other 0.9166666666666666
1096 keep SiteClassificationType.other 0.8333333333333334
1097 keep SiteClassificationType.constant 0.8333333333333334
1098 keep SiteClassificationType.other 0.8333333333333334
1099 keep SiteClassificationType.other 0.8333333333333334
1100 trim SiteClassificationType.other 0.9166666666666666
1101 keep SiteClassificationType.other 0.8333333333333334
1102 keep SiteClassificationType.other 0.8333333333333334
1103 keep SiteClassificationType.other 0.8333333333333334
1104 keep SiteClassificationType.parsimony_informative 0.08333333333333333
1105 keep SiteClassificationType.parsimony_informative 0.08333333333333333
1106 keep SiteClassificationType.singleton 0.08333333333333333
1107 keep SiteClassificationType.parsimony_informative 0.08333333333333333
1108 keep SiteClassificationType.singleton 0.08333333333333333
1109 keep SiteClassificationType.singleton 0.08333333333333333
1110 keep SiteClassificationType.singleton 0.08333333333333333
1111 keep SiteClassificationType.parsimony_informative 0.08333333333333333
1112 keep SiteClassificationType.parsimony_informative 0.08333333333333333
1113 keep SiteClassificationType.parsimony_informative 0.08333333333333333
1114 keep SiteClassificationType.parsimony_informative 0.25
1115 keep SiteClassificationType.parsimony_informative 0.3333333333333333
1116 keep SiteClassificationType.parsimony_informative 0.3333333333333333
1117 keep SiteClassificationType.parsimony_informative 0.4166666666666667
1118 keep SiteClassificationType.singleton 0.4166666666666667
1119 keep SiteClassificationType.parsimony_informative 0.4166666666666667
1120 trim SiteClassificationType.other 0.9166666666666666
1121 keep SiteClassificationType.other 0.8333333333333334
1122 keep SiteClassificationType.parsimony_informative 0.25
1123 keep SiteClassificationType.parsimony_informative 0.25
1124 keep SiteClassificationType.parsimony_informative 0.25
1125 keep SiteClassificationType.parsimony_informative 0.25
1126 keep SiteClassificationType.parsimony_informative 0.25
1127 keep SiteClassificationType.parsimony_informative 0.25
1128 keep SiteClassificationType.singleton 0.08333333333333333
1129 keep SiteClassificationType.singleton 0.08333333333333333
1130 keep SiteClassificationType.parsimony_informative 0.08333333333333333
1131 keep SiteClassificationType.singleton 0.16666666666666666
1132 keep SiteClassificationType.constant 0.16666666666666666
1133 keep SiteClassificationType.parsimony_informative 0.16666666666666666
1134 keep SiteClassificationType.parsimony_informative 0.16666666666666666
1135 trim SiteClassificationType.other 0.9166666666666666
1136 keep SiteClassificationType.parsimony_informative 0.0
1137 keep SiteClassificationType.singleton 0.0
1138 keep SiteClassificationType.parsimony_informative 0.0
1139 keep SiteClassificationType.parsimony_informative 0.0
1140 keep SiteClassificationType.parsimony_informative 0.0
1141 keep SiteClassificationType.parsimony_informative 0.0
1142 keep SiteClassificationType.parsimony_informative 0.0
1143 keep SiteClassificationType.parsimony_informative 0.0
1144 keep SiteClassificationType.parsimony_informative 0.0
1145 keep SiteClassificationType.singleton 0.3333333333333333
1146 keep SiteClassificationType.parsimony_informative 0.4166666666666667
1147 keep SiteClassificationType.singleton 0.5
1148 keep SiteClassificationType.singleton 0.5
1149 keep SiteClassificationType.other 0.8333333333333334
1150 keep SiteClassificationType.constant 0.8333333333333334
1151 keep SiteClassificationType.constant 0.8333333333333334
1152 keep SiteClassificationType.other 0.8333333333333334
1153 keep SiteClassificationType.other 0.8333333333333334
1154 trim SiteClassificationType.other 0.9166666666666666
1155 trim SiteClassificationType.other 0.9166666666666666
1156 keep SiteClassificationType.constant 0.8333333333333334
1157 keep SiteClassificationType.other 0.8333333333333334
1158 keep SiteClassificationType.parsimony_informative 0.0
1159 keep SiteClassificationType.parsimony_informative 0.0
1160 keep SiteClassificationType.parsimony_informative 0.0
1161 keep SiteClassificationType.parsimony_informative 0.0
1162 keep SiteClassificationType.parsimony_informative 0.0
1163 keep SiteClassificationType.constant 0.0
1164 keep SiteClassificationType.parsimony_informative 0.0
1165 keep SiteClassificationType.constant 0.0
1166 keep SiteClassificationType.singleton 0.0
1167 keep SiteClassificationType.singleton 0.0
1168 keep SiteClassificationType.singleton 0.0
1169 keep SiteClassificationType.singleton 0.0
1170 keep SiteClassificationType.singleton 0.0
1171 keep SiteClassificationType.parsimony_informative 0.0
1172 keep SiteClassificationType.parsimony_informative 0.08333333333333333
1173 keep SiteClassificationType.parsimony_informative 0.0
1174 keep SiteClassificationType.parsimony_informative 0.0
1175 keep SiteClassificationType.parsimony_informative 0.0
1176 keep SiteClassificationType.parsimony_informative 0.0
1177 keep SiteClassificationType.parsimony_informative 0.0
1178 keep SiteClassificationType.parsimony_informative 0.08333333333333333
1179 keep SiteClassificationType.parsimony_informative 0.08333333333333333
1180 keep SiteClassificationType.constant 0.75
1181 trim SiteClassificationType.other 0.9166666666666666
1182 trim SiteClassificationType.other 0.9166666666666666
1183 trim SiteClassificationType.other 0.9166666666666666
1184 trim SiteClassificationType.other 0.9166666666666666
1185 trim SiteClassificationType.other 0.9166666666666666
1186 trim SiteClassificationType.other 0.9166666666666666
1187 trim SiteClassificationType.other 0.9166666666666666
1188 keep SiteClassificationType.other 0.8333333333333334
1189 keep SiteClassificationType.constant 0.8333333333333334
1190 keep SiteClassificationType.other 0.8333333333333334
1191 keep SiteClassificationType.other 0.8333333333333334
1192 keep SiteClassificationType.constant 0.8333333333333334
1193 keep SiteClassificationType.other 0.8333333333333334
1194 keep SiteClassificationType.other 0.8333333333333334
1195 keep SiteClassificationType.constant 0.8333333333333334
1196 keep SiteClassificationType.other 0.8333333333333334
1197 keep SiteClassificationType.other 0.8333333333333334
1198 keep SiteClassificationType.constant 0.8333333333333334
1199 trim SiteClassificationType.other 0.9166666666666666
1200 trim SiteClassificationType.other 0.9166666666666666
1201 trim SiteClassificationType.other 0.9166666666666666
1202 trim SiteClassificationType.other 0.9166666666666666
1203 trim SiteClassificationType.other 0.9166666666666666
1204 trim SiteClassificationType.other 0.9166666666666666
1205 keep SiteClassificationType.constant 0.8333333333333334
1206 keep SiteClassificationType.other 0.8333333333333334
1207 keep SiteClassificationType.constant 0.8333333333333334
1208 keep SiteClassificationType.other 0.8333333333333334
1209 keep SiteClassificationType.other 0.8333333333333334
1210 keep SiteClassificationType.other 0.8333333333333334
1211 keep SiteClassificationType.other 0.8333333333333334
1212 keep SiteClassificationType.other 0.8333333333333334
1213 keep SiteClassificationType.other 0.8333333333333334
1214 keep SiteClassificationType.other 0.8333333333333334
1215 keep SiteClassificationType.other 0.8333333333333334
1216 keep SiteClassificationType.other 0.8333333333333334
1217 trim SiteClassificationType.other 0.9166666666666666
1218 trim SiteClassificationType.other 0.9166666666666666
1219 trim SiteClassificationType.other 0.9166666666666666
1220 trim SiteClassificationType.other 0.9166666666666666
1221 trim SiteClassificationType.other 0.9166666666666666
1222 trim SiteClassificationType.other 0.9166666666666666
1223 trim SiteClassificationType.other 0.9166666666666666
1224 trim SiteClassificationType.other 0.9166666666666666
1225 trim SiteClassificationType.other 0.9166666666666666
1226 trim SiteClassificationType.other 0.9166666666666666
1227 trim SiteClassificationType.other 0.9166666666666666
1228 trim SiteClassificationType.other 0.9166666666666666
1229 trim SiteClassificationType.other 0.9166666666666666
1230 trim SiteClassificationType.other 0.9166666666666666
1231 trim SiteClassificationType.other 0.9166666666666666
1232 trim SiteClassificationType.other 0.9166666666666666
1233 trim SiteClassificationType.other 0.9166666666666666
1234 trim SiteClassificationType.other 0.9166666666666666
1235 trim SiteClassificationType.other 0.9166666666666666
1236 trim SiteClassificationType.other 0.9166666666666666
1237 trim SiteClassificationType.other 0.9166666666666666
1238 trim SiteClassificationType.other 0.9166666666666666
1239 trim SiteClassificationType.other 0.9166666666666666
1240 trim SiteClassificationType.other 0.9166666666666666
1241 trim SiteClassificationType.other 0.9166666666666666
1242 trim SiteClassificationType.other 0.9166666666666666
1243 trim SiteClassificationType.other 0.9166666666666666
1244 trim SiteClassificationType.other 0.9166666666666666
1245 trim SiteClassificationType.other 0.9166666666666666
1246 trim SiteClassificationType.other 0.9166666666666666
1247 trim SiteClassificationType.other 0.9166666666666666
1248 trim SiteClassificationType.other 0.9166666666666666
1249 trim SiteClassificationType.other 0.9166666666666666
1250 trim SiteClassificationType.other 0.9166666666666666
1251 trim SiteClassificationType.other 0.9166666666666666
1252 trim SiteClassificationType.other 0.9166666666666666
1253 trim SiteClassificationType.other 0.9166666666666666
1254 trim SiteClassificationType.other 0.9166666666666666
1255 trim SiteClassificationType.other 0.9166666666666666
1256 trim SiteClassificationType.other 0.9166666666666666
1257 keep SiteClassificationType.constant 0.8333333333333334
1258 keep SiteClassificationType.constant 0.8333333333333334
1259 keep SiteClassificationType.other 0.8333333333333334
1260 keep SiteClassificationType.other 0.8333333333333334
1261 trim SiteClassificationType.other 0.9166666666666666
1262 trim SiteClassificationType.other 0.9166666666666666
1263 trim SiteClassificationType.other 0.9166666666666666
1264 trim SiteClassificationType.other 0.9166666666666666
1265 trim SiteClassificationType.other 0.9166666666666666
1266 trim SiteClassificationType.other 0.9166666666666666
1267 trim SiteClassificationType.other 0.9166666666666666
1268 trim SiteClassificationType.other 0.9166666666666666
1269 trim SiteClassificationType.other 0.9166666666666666
1270 trim SiteClassificationType.other 0.9166666666666666
1271 trim SiteClassificationType.other 0.9166666666666666
1272 trim SiteClassificationType.other 0.9166666666666666
1273 trim SiteClassificationType.other 0.9166666666666666
1274 trim SiteClassificationType.other 0.9166666666666666
1275 trim SiteClassificationType.other 0.9166666666666666
1276 trim SiteClassificationType.other 0.9166666666666666
1277 trim SiteClassificationType.other 0.9166666666666666
1278 trim SiteClassificationType.other 0.9166666666666666
1279 keep SiteClassificationType.other 0.8333333333333334
1280 keep SiteClassificationType.other 0.8333333333333334
1281 keep SiteClassificationType.constant 0.8333333333333334
1282 keep SiteClassificationType.other 0.8333333333333334
1283 keep SiteClassificationType.singleton 0.6666666666666666
1284 keep SiteClassificationType.parsimony_informative 0.25
1285 keep SiteClassificationType.parsimony_informative 0.25
1286 keep SiteClassificationType.parsimony_informative 0.25
1287 keep SiteClassificationType.parsimony_informative 0.25
1288 keep SiteClassificationType.parsimony_informative 0.25
1289 keep SiteClassificationType.parsimony_informative 0.25
1290 keep SiteClassificationType.parsimony_informative 0.25
1291 keep SiteClassificationType.parsimony_informative 0.25
1292 keep SiteClassificationType.parsimony_informative 0.25
1293 keep SiteClassificationType.other 0.8333333333333334
1294 trim SiteClassificationType.other 0.9166666666666666
1295 keep SiteClassificationType.other 0.8333333333333334
1296 keep SiteClassificationType.parsimony_informative 0.0
1297 keep SiteClassificationType.parsimony_informative 0.0
1298 keep SiteClassificationType.parsimony_informative 0.0
1299 keep SiteClassificationType.parsimony_informative 0.0
1300 keep SiteClassificationType.singleton 0.75
1301 keep SiteClassificationType.parsimony_informative 0.0
1302 trim SiteClassificationType.other 0.9166666666666666
1303 trim SiteClassificationType.other 0.9166666666666666
1304 trim SiteClassificationType.other 0.9166666666666666
1305 trim SiteClassificationType.other 0.9166666666666666
1306 trim SiteClassificationType.other 0.9166666666666666
1307 trim SiteClassificationType.other 0.9166666666666666
1308 trim SiteClassificationType.other 0.9166666666666666
1309 trim SiteClassificationType.other 0.9166666666666666
1310 trim SiteClassificationType.other 0.9166666666666666
1311 trim SiteClassificationType.other 0.9166666666666666
1312 trim SiteClassificationType.other 0.9166666666666666
1313 trim SiteClassificationType.other 0.9166666666666666
1314 trim SiteClassificationType.other 0.9166666666666666
1315 trim SiteClassificationType.other 0.9166666666666666
1316 trim SiteClassificationType.other 0.9166666666666666
1317 trim SiteClassificationType.other 0.9166666666666666
1318 trim SiteClassificationType.other 0.9166666666666666
1319 trim SiteClassificationType.other 0.9166666666666666
1320 trim SiteClassificationType.other 0.9166666666666666
1321 trim SiteClassificationType.other 0.9166666666666666
1322 keep SiteClassificationType.other 0.8333333333333334
1323 keep SiteClassificationType.singleton 0.75
1324 keep SiteClassificationType.singleton 0.0
1325 keep SiteClassificationType.singleton 0.0
1326 keep SiteClassificationType.parsimony_informative 0.0
1327 keep SiteClassificationType.parsimony_informative 0.0
1328 keep SiteClassificationType.parsimony_informative 0.0
1329 keep SiteClassificationType.constant 0.0
1330 keep SiteClassificationType.parsimony_informative 0.0
1331 keep SiteClassificationType.parsimony_informative 0.0
1332 keep SiteClassificationType.parsimony_informative 0.0
1333 keep SiteClassificationType.constant 0.0
1334 keep SiteClassificationType.parsimony_informative 0.0
1335 keep SiteClassificationType.parsimony_informative 0.0
1336 keep SiteClassificationType.parsimony_informative 0.0
1337 keep SiteClassificationType.singleton 0.0
1338 trim SiteClassificationType.other 0.9166666666666666
1339 trim SiteClassificationType.other 0.9166666666666666
1340 trim SiteClassificationType.other 0.9166666666666666
1341 keep SiteClassificationType.singleton 0.0
1342 keep SiteClassificationType.parsimony_informative 0.0
1343 keep SiteClassificationType.parsimony_informative 0.0
1344 keep SiteClassificationType.parsimony_informative 0.0
1345 keep SiteClassificationType.parsimony_informative 0.0
1346 keep SiteClassificationType.parsimony_informative 0.0
1347 keep SiteClassificationType.parsimony_informative 0.0
1348 keep SiteClassificationType.parsimony_informative 0.0
1349 keep SiteClassificationType.parsimony_informative 0.0
1350 keep SiteClassificationType.parsimony_informative 0.0
1351 keep SiteClassificationType.singleton 0.0
1352 keep SiteClassificationType.singleton 0.5
1353 keep SiteClassificationType.other 0.5
1354 keep SiteClassificationType.singleton 0.5833333333333334
1355 keep SiteClassificationType.other 0.5833333333333334
1356 keep SiteClassificationType.other 0.8333333333333334
1357 keep SiteClassificationType.parsimony_informative 0.0
1358 keep SiteClassificationType.parsimony_informative 0.0
1359 keep SiteClassificationType.parsimony_informative 0.0
1360 keep SiteClassificationType.parsimony_informative 0.0
1361 keep SiteClassificationType.parsimony_informative 0.0
1362 keep SiteClassificationType.parsimony_informative 0.0
1363 keep SiteClassificationType.parsimony_informative 0.0
1364 keep SiteClassificationType.parsimony_informative 0.0
1365 keep SiteClassificationType.parsimony_informative 0.0
1366 keep SiteClassificationType.constant 0.0
1367 keep SiteClassificationType.constant 0.0
1368 keep SiteClassificationType.constant 0.0
1369 keep SiteClassificationType.parsimony_informative 0.0
1370 keep SiteClassificationType.parsimony_informative 0.0
1371 keep SiteClassificationType.parsimony_informative 0.0
[...]
1782 keep SiteClassificationType.parsimony_informative 0.08333333333333333
1783 keep SiteClassificationType.parsimony_informative 0.08333333333333333
1784 keep SiteClassificationType.parsimony_informative 0.16666666666666666
1785 keep SiteClassificationType.parsimony_informative 0.16666666666666666
1786 keep SiteClassificationType.parsimony_informative 0.16666666666666666
1787 keep SiteClassificationType.parsimony_informative 0.08333333333333333
1788 keep SiteClassificationType.parsimony_informative 0.0
1789 keep SiteClassificationType.singleton 0.0
1790 keep SiteClassificationType.parsimony_informative 0.0
1791 keep SiteClassificationType.singleton 0.16666666666666666
1792 keep SiteClassificationType.parsimony_informative 0.0
1793 keep SiteClassificationType.parsimony_informative 0.0
1794 keep SiteClassificationType.parsimony_informative 0.0
1795 keep SiteClassificationType.parsimony_informative 0.0
1796 keep SiteClassificationType.parsimony_informative 0.0
1797 keep SiteClassificationType.parsimony_informative 0.0
1798 keep SiteClassificationType.parsimony_informative 0.0
1799 keep SiteClassificationType.parsimony_informative 0.0
1800 keep SiteClassificationType.parsimony_informative 0.0
1801 keep SiteClassificationType.constant 0.0
1802 keep SiteClassificationType.constant 0.0
1803 keep SiteClassificationType.parsimony_informative 0.0
1804 keep SiteClassificationType.singleton 0.0
1805 keep SiteClassificationType.parsimony_informative 0.0
1806 keep SiteClassificationType.singleton 0.0
1807 keep SiteClassificationType.singleton 0.0
1808 keep SiteClassificationType.singleton 0.0
1809 keep SiteClassificationType.parsimony_informative 0.0
1810 keep SiteClassificationType.constant 0.0
1811 keep SiteClassificationType.parsimony_informative 0.0
1812 keep SiteClassificationType.parsimony_informative 0.0
1813 keep SiteClassificationType.parsimony_informative 0.0
1814 keep SiteClassificationType.parsimony_informative 0.0
1815 keep SiteClassificationType.constant 0.0
1816 keep SiteClassificationType.singleton 0.0
1817 keep SiteClassificationType.parsimony_informative 0.0
1818 keep SiteClassificationType.singleton 0.0
1819 keep SiteClassificationType.constant 0.0
1820 keep SiteClassificationType.parsimony_informative 0.0
1821 keep SiteClassificationType.constant 0.0
1822 keep SiteClassificationType.singleton 0.0
1823 keep SiteClassificationType.parsimony_informative 0.0
1824 keep SiteClassificationType.singleton 0.0
1825 keep SiteClassificationType.parsimony_informative 0.0
1826 keep SiteClassificationType.parsimony_informative 0.0
1827 keep SiteClassificationType.singleton 0.0
1828 keep SiteClassificationType.constant 0.0
1829 keep SiteClassificationType.singleton 0.0
1830 keep SiteClassificationType.parsimony_informative 0.0
1831 keep SiteClassificationType.singleton 0.0
1832 keep SiteClassificationType.parsimony_informative 0.0
1833 keep SiteClassificationType.parsimony_informative 0.0
1834 keep SiteClassificationType.parsimony_informative 0.0
1835 keep SiteClassificationType.parsimony_informative 0.0
1836 keep SiteClassificationType.parsimony_informative 0.0
1837 keep SiteClassificationType.parsimony_informative 0.0
1838 keep SiteClassificationType.constant 0.0
1839 keep SiteClassificationType.parsimony_informative 0.0
1840 keep SiteClassificationType.parsimony_informative 0.0
1841 keep SiteClassificationType.parsimony_informative 0.0
1842 keep SiteClassificationType.parsimony_informative 0.0
1843 keep SiteClassificationType.parsimony_informative 0.0
1844 keep SiteClassificationType.parsimony_informative 0.0
1845 keep SiteClassificationType.parsimony_informative 0.0
1846 keep SiteClassificationType.parsimony_informative 0.0
1847 keep SiteClassificationType.constant 0.0
1848 keep SiteClassificationType.parsimony_informative 0.0
1849 keep SiteClassificationType.parsimony_informative 0.0
1850 keep SiteClassificationType.parsimony_informative 0.0
1851 keep SiteClassificationType.parsimony_informative 0.0
1852 keep SiteClassificationType.parsimony_informative 0.0
1853 keep SiteClassificationType.parsimony_informative 0.0
1854 keep SiteClassificationType.parsimony_informative 0.0
1855 keep SiteClassificationType.parsimony_informative 0.0
1856 keep SiteClassificationType.constant 0.0
1857 keep SiteClassificationType.parsimony_informative 0.0
1858 keep SiteClassificationType.constant 0.0
1859 keep SiteClassificationType.parsimony_informative 0.0
1860 keep SiteClassificationType.parsimony_informative 0.0
1861 keep SiteClassificationType.parsimony_informative 0.0
1862 keep SiteClassificationType.parsimony_informative 0.0
1863 keep SiteClassificationType.parsimony_informative 0.0
1864 keep SiteClassificationType.singleton 0.0
1865 keep SiteClassificationType.constant 0.0
1866 keep SiteClassificationType.parsimony_informative 0.0
1867 keep SiteClassificationType.parsimony_informative 0.0
1868 keep SiteClassificationType.constant 0.0
1869 keep SiteClassificationType.singleton 0.0
1870 keep SiteClassificationType.parsimony_informative 0.0
1871 keep SiteClassificationType.parsimony_informative 0.0
1872 keep SiteClassificationType.constant 0.0
1873 keep SiteClassificationType.singleton 0.0
1874 keep SiteClassificationType.parsimony_informative 0.0
1875 keep SiteClassificationType.singleton 0.0
1876 keep SiteClassificationType.parsimony_informative 0.0
1877 keep SiteClassificationType.parsimony_informative 0.0
1878 keep SiteClassificationType.parsimony_informative 0.0
1879 keep SiteClassificationType.singleton 0.0
1880 keep SiteClassificationType.parsimony_informative 0.0
1881 keep SiteClassificationType.parsimony_informative 0.0
1882 keep SiteClassificationType.constant 0.0
1883 keep SiteClassificationType.singleton 0.0
1884 keep SiteClassificationType.parsimony_informative 0.0
1885 keep SiteClassificationType.parsimony_informative 0.0
1886 keep SiteClassificationType.parsimony_informative 0.0
1887 keep SiteClassificationType.parsimony_informative 0.0
1888 keep SiteClassificationType.parsimony_informative 0.0
1889 keep SiteClassificationType.parsimony_informative 0.0
1890 keep SiteClassificationType.parsimony_informative 0.0
1891 keep SiteClassificationType.constant 0.08333333333333333
1892 keep SiteClassificationType.parsimony_informative 0.0
1893 keep SiteClassificationType.parsimony_informative 0.0
1894 keep SiteClassificationType.parsimony_informative 0.0
1895 keep SiteClassificationType.parsimony_informative 0.0
1896 keep SiteClassificationType.parsimony_informative 0.0
1897 keep SiteClassificationType.parsimony_informative 0.0
1898 keep SiteClassificationType.singleton 0.0
1899 keep SiteClassificationType.parsimony_informative 0.0
1900 keep SiteClassificationType.singleton 0.0
1901 keep SiteClassificationType.parsimony_informative 0.0
1902 keep SiteClassificationType.constant 0.0
1903 keep SiteClassificationType.constant 0.0
1904 keep SiteClassificationType.parsimony_informative 0.0
1905 keep SiteClassificationType.parsimony_informative 0.0
1906 keep SiteClassificationType.constant 0.0
1907 keep SiteClassificationType.parsimony_informative 0.0
1908 keep SiteClassificationType.parsimony_informative 0.0
1909 keep SiteClassificationType.parsimony_informative 0.0
1910 keep SiteClassificationType.parsimony_informative 0.0
1911 keep SiteClassificationType.parsimony_informative 0.0
1912 keep SiteClassificationType.parsimony_informative 0.0
1913 keep SiteClassificationType.singleton 0.0
1914 keep SiteClassificationType.parsimony_informative 0.0
1915 keep SiteClassificationType.parsimony_informative 0.0
1916 keep SiteClassificationType.parsimony_informative 0.0
1917 keep SiteClassificationType.parsimony_informative 0.6666666666666666
1918 keep SiteClassificationType.parsimony_informative 0.0
1919 keep SiteClassificationType.parsimony_informative 0.0
1920 keep SiteClassificationType.parsimony_informative 0.0
1921 keep SiteClassificationType.parsimony_informative 0.0
1922 keep SiteClassificationType.parsimony_informative 0.0
1923 keep SiteClassificationType.parsimony_informative 0.0
1924 keep SiteClassificationType.parsimony_informative 0.0
1925 keep SiteClassificationType.parsimony_informative 0.0
1926 keep SiteClassificationType.parsimony_informative 0.0
1927 keep SiteClassificationType.parsimony_informative 0.0
1928 keep SiteClassificationType.parsimony_informative 0.0
1929 keep SiteClassificationType.parsimony_informative 0.0
1930 keep SiteClassificationType.parsimony_informative 0.0
1931 keep SiteClassificationType.parsimony_informative 0.0
1932 keep SiteClassificationType.singleton 0.0
1933 keep SiteClassificationType.parsimony_informative 0.0
1934 keep SiteClassificationType.singleton 0.0
1935 keep SiteClassificationType.parsimony_informative 0.0
1936 keep SiteClassificationType.parsimony_informative 0.08333333333333333
1937 keep SiteClassificationType.singleton 0.08333333333333333
1938 keep SiteClassificationType.parsimony_informative 0.08333333333333333
1939 keep SiteClassificationType.parsimony_informative 0.08333333333333333
1940 keep SiteClassificationType.parsimony_informative 0.16666666666666666
1941 trim SiteClassificationType.other 0.9166666666666666
1942 keep SiteClassificationType.other 0.8333333333333334
1943 keep SiteClassificationType.other 0.8333333333333334
1944 keep SiteClassificationType.parsimony_informative 0.0
1945 keep SiteClassificationType.parsimony_informative 0.0
1946 keep SiteClassificationType.parsimony_informative 0.0
1947 keep SiteClassificationType.parsimony_informative 0.08333333333333333
1948 keep SiteClassificationType.parsimony_informative 0.0
1949 keep SiteClassificationType.parsimony_informative 0.0
1950 keep SiteClassificationType.parsimony_informative 0.0
1951 keep SiteClassificationType.singleton 0.0
1952 keep SiteClassificationType.parsimony_informative 0.0
1953 keep SiteClassificationType.parsimony_informative 0.0
1954 keep SiteClassificationType.parsimony_informative 0.0
1955 keep SiteClassificationType.parsimony_informative 0.0
1956 keep SiteClassificationType.parsimony_informative 0.0
1957 keep SiteClassificationType.parsimony_informative 0.0
1958 keep SiteClassificationType.singleton 0.0
1959 keep SiteClassificationType.parsimony_informative 0.0
1960 keep SiteClassificationType.parsimony_informative 0.0
1961 keep SiteClassificationType.parsimony_informative 0.0
1962 keep SiteClassificationType.parsimony_informative 0.0
1963 keep SiteClassificationType.parsimony_informative 0.0
1964 keep SiteClassificationType.parsimony_informative 0.0
1965 keep SiteClassificationType.parsimony_informative 0.0
1966 keep SiteClassificationType.parsimony_informative 0.08333333333333333
1967 keep SiteClassificationType.parsimony_informative 0.08333333333333333
1968 keep SiteClassificationType.singleton 0.5833333333333334
1969 keep SiteClassificationType.parsimony_informative 0.08333333333333333
1970 keep SiteClassificationType.parsimony_informative 0.08333333333333333
1971 keep SiteClassificationType.parsimony_informative 0.0
1972 keep SiteClassificationType.parsimony_informative 0.0
1973 keep SiteClassificationType.parsimony_informative 0.0
1974 keep SiteClassificationType.parsimony_informative 0.0
1975 keep SiteClassificationType.parsimony_informative 0.0
1976 keep SiteClassificationType.parsimony_informative 0.0
1977 keep SiteClassificationType.parsimony_informative 0.0
1978 keep SiteClassificationType.parsimony_informative 0.0
1979 trim SiteClassificationType.other 0.9166666666666666
1980 trim SiteClassificationType.other 0.9166666666666666
1981 keep SiteClassificationType.constant 0.0
1982 keep SiteClassificationType.singleton 0.0
1983 keep SiteClassificationType.parsimony_informative 0.0
1984 keep SiteClassificationType.parsimony_informative 0.0
1985 keep SiteClassificationType.constant 0.0
1986 keep SiteClassificationType.parsimony_informative 0.0
1987 keep SiteClassificationType.parsimony_informative 0.0
1988 keep SiteClassificationType.parsimony_informative 0.0
1989 keep SiteClassificationType.parsimony_informative 0.0
1990 keep SiteClassificationType.parsimony_informative 0.0
1991 keep SiteClassificationType.parsimony_informative 0.0
1992 keep SiteClassificationType.singleton 0.0
1993 keep SiteClassificationType.constant 0.0
1994 keep SiteClassificationType.parsimony_informative 0.0
1995 keep SiteClassificationType.singleton 0.0
1996 keep SiteClassificationType.parsimony_informative 0.0
1997 keep SiteClassificationType.singleton 0.0
1998 keep SiteClassificationType.parsimony_informative 0.0
1999 keep SiteClassificationType.parsimony_informative 0.0
2000 keep SiteClassificationType.parsimony_informative 0.0
2001 keep SiteClassificationType.parsimony_informative 0.0
2002 keep SiteClassificationType.parsimony_informative 0.0
2003 keep SiteClassificationType.parsimony_informative 0.0
2004 keep SiteClassificationType.parsimony_informative 0.0
2005 keep SiteClassificationType.parsimony_informative 0.0
2006 keep SiteClassificationType.parsimony_informative 0.0
2007 keep SiteClassificationType.parsimony_informative 0.0
2008 keep SiteClassificationType.singleton 0.0
2009 keep SiteClassificationType.parsimony_informative 0.0
2010 keep SiteClassificationType.singleton 0.0
2011 keep SiteClassificationType.singleton 0.0
2012 keep SiteClassificationType.parsimony_informative 0.0
2013 keep SiteClassificationType.parsimony_informative 0.0
2014 keep SiteClassificationType.constant 0.0
2015 keep SiteClassificationType.parsimony_informative 0.0
2016 keep SiteClassificationType.parsimony_informative 0.0
2017 keep SiteClassificationType.parsimony_informative 0.0
2018 keep SiteClassificationType.parsimony_informative 0.0
2019 keep SiteClassificationType.parsimony_informative 0.0
2020 keep SiteClassificationType.parsimony_informative 0.0
2021 keep SiteClassificationType.parsimony_informative 0.0
2022 keep SiteClassificationType.parsimony_informative 0.0
2023 keep SiteClassificationType.singleton 0.0
2024 keep SiteClassificationType.parsimony_informative 0.0
2025 keep SiteClassificationType.parsimony_informative 0.0
2026 keep SiteClassificationType.singleton 0.0
2027 keep SiteClassificationType.singleton 0.0
2028 keep SiteClassificationType.parsimony_informative 0.0
2029 keep SiteClassificationType.parsimony_informative 0.0
2030 keep SiteClassificationType.parsimony_informative 0.0
2031 keep SiteClassificationType.singleton 0.0
2032 keep SiteClassificationType.singleton 0.0
2033 keep SiteClassificationType.parsimony_informative 0.0
2034 keep SiteClassificationType.parsimony_informative 0.0
2035 keep SiteClassificationType.parsimony_informative 0.0
2036 keep SiteClassificationType.singleton 0.0
2037 keep SiteClassificationType.parsimony_informative 0.0
2038 keep SiteClassificationType.parsimony_informative 0.0
2039 keep SiteClassificationType.parsimony_informative 0.08333333333333333
2040 keep SiteClassificationType.parsimony_informative 0.08333333333333333
2041 keep SiteClassificationType.parsimony_informative 0.08333333333333333
2042 keep SiteClassificationType.singleton 0.08333333333333333
2043 keep SiteClassificationType.constant 0.08333333333333333
2044 keep SiteClassificationType.parsimony_informative 0.08333333333333333
2045 keep SiteClassificationType.parsimony_informative 0.08333333333333333
2046 keep SiteClassificationType.singleton 0.0
2047 keep SiteClassificationType.parsimony_informative 0.0
2048 keep SiteClassificationType.parsimony_informative 0.0
2049 keep SiteClassificationType.singleton 0.0
2050 keep SiteClassificationType.singleton 0.0
2051 keep SiteClassificationType.parsimony_informative 0.0
2052 keep SiteClassificationType.parsimony_informative 0.08333333333333333
2053 keep SiteClassificationType.parsimony_informative 0.0
2054 keep SiteClassificationType.parsimony_informative 0.0
2055 keep SiteClassificationType.parsimony_informative 0.0
2056 keep SiteClassificationType.parsimony_informative 0.0
2057 keep SiteClassificationType.parsimony_informative 0.08333333333333333
2058 keep SiteClassificationType.parsimony_informative 0.08333333333333333
2059 keep SiteClassificationType.parsimony_informative 0.08333333333333333
2060 keep SiteClassificationType.parsimony_informative 0.08333333333333333
2061 keep SiteClassificationType.parsimony_informative 0.08333333333333333
2062 keep SiteClassificationType.parsimony_informative 0.08333333333333333
2063 keep SiteClassificationType.parsimony_informative 0.0
2064 keep SiteClassificationType.parsimony_informative 0.0
2065 keep SiteClassificationType.parsimony_informative 0.0
2066 keep SiteClassificationType.parsimony_informative 0.0
2067 keep SiteClassificationType.parsimony_informative 0.0
2068 keep SiteClassificationType.parsimony_informative 0.08333333333333333
2069 keep SiteClassificationType.parsimony_informative 0.5
2070 keep SiteClassificationType.parsimony_informative 0.16666666666666666
2071 keep SiteClassificationType.singleton 0.08333333333333333
2072 keep SiteClassificationType.parsimony_informative 0.0
2073 keep SiteClassificationType.parsimony_informative 0.0
2074 keep SiteClassificationType.parsimony_informative 0.0
2075 keep SiteClassificationType.parsimony_informative 0.0
2076 keep SiteClassificationType.parsimony_informative 0.0
2077 keep SiteClassificationType.constant 0.8333333333333334
2078 keep SiteClassificationType.other 0.8333333333333334
2079 keep SiteClassificationType.other 0.8333333333333334
2080 keep SiteClassificationType.other 0.8333333333333334
2081 keep SiteClassificationType.other 0.8333333333333334
2082 keep SiteClassificationType.other 0.8333333333333334
2083 keep SiteClassificationType.other 0.8333333333333334
2084 keep SiteClassificationType.parsimony_informative 0.0
2085 keep SiteClassificationType.parsimony_informative 0.0
2086 keep SiteClassificationType.parsimony_informative 0.0
2087 keep SiteClassificationType.parsimony_informative 0.0
2088 keep SiteClassificationType.parsimony_informative 0.0
2089 keep SiteClassificationType.parsimony_informative 0.0
2090 keep SiteClassificationType.parsimony_informative 0.0
2091 keep SiteClassificationType.parsimony_informative 0.0
2092 keep SiteClassificationType.parsimony_informative 0.0
2093 keep SiteClassificationType.parsimony_informative 0.0
2094 keep SiteClassificationType.parsimony_informative 0.0
2095 keep SiteClassificationType.parsimony_informative 0.0
2096 keep SiteClassificationType.parsimony_informative 0.0
2097 keep SiteClassificationType.parsimony_informative 0.0
2098 keep SiteClassificationType.parsimony_informative 0.0
2099 keep SiteClassificationType.constant 0.0
2100 keep SiteClassificationType.parsimony_informative 0.0
2101 keep SiteClassificationType.parsimony_informative 0.0
2102 keep SiteClassificationType.parsimony_informative 0.0
2103 keep SiteClassificationType.parsimony_informative 0.0
2104 keep SiteClassificationType.constant 0.0
2105 keep SiteClassificationType.parsimony_informative 0.0
2106 keep SiteClassificationType.singleton 0.0
2107 keep SiteClassificationType.constant 0.0
2108 keep SiteClassificationType.singleton 0.0
2109 keep SiteClassificationType.parsimony_informative 0.0
2110 keep SiteClassificationType.parsimony_informative 0.08333333333333333
2111 keep SiteClassificationType.singleton 0.16666666666666666
2112 keep SiteClassificationType.parsimony_informative 0.25
2113 keep SiteClassificationType.parsimony_informative 0.25
2114 keep SiteClassificationType.parsimony_informative 0.25
2115 trim SiteClassificationType.other 0.9166666666666666
2116 trim SiteClassificationType.other 0.9166666666666666
2117 keep SiteClassificationType.singleton 0.25


------------------------
| Writing output files |
------------------------
trimmed alignment: tests/integration/samples/12_YIL115C_Anc_2.253_aa_aln.fasta.clipkit
complement file: False
log file: tests/integration/samples/12_YIL115C_Anc_2.253_aa_aln.fasta.clipkit.log


---------------------
| Output Statistics |
---------------------
Number of sites kept: 1770
Number of sites trimmed: 347

Percentage of alignment trimmed: 16.391%

Execution time: 0.127s

